LTspice 24.1.3 for Windows
Circuit: C:\Users\anoli\OneDrive\Documents\Sproj\OVP.net
Start Time: Wed Feb 19 02:10:51 2025
solver = Normal
Maximum thread count: 12
tnom = 27
temp = 27
method = modified trap
Direct Newton iteration for .op point succeeded.
Total elapsed time: 0.079 seconds.

Files loaded:
C:\Users\anoli\OneDrive\Documents\Sproj\OVP.net
C:\Users\anoli\AppData\Local\LTspice\lib\cmp\standard.dio
C:\Users\anoli\AppData\Local\LTspice\lib\cmp\standard.bjt
C:\Users\anoli\OneDrive\Documents\Sproj\FMMT718Q.txt
C:\Users\anoli\OneDrive\Documents\Sproj\BZX84C5V6.txt
C:\Users\anoli\OneDrive\Documents\Sproj\kdzv20b.lib
C:\Users\anoli\OneDrive\Documents\Sproj\kdzv5_1b.lib

