Circuit: * D:\Work and Coper Onion\Senior Projects\Switch-Mode-Power-Supply\LTSpice Simulations\Buck Converter\Buck_Converter.asc

Instance "m:u4:os": Width narrower than recommended for a level 3 MOSFET.
Instance "m:u5:os": Width narrower than recommended for a level 3 MOSFET.
Direct Newton iteration failed to find .op point.  (Use ".option noopiter" to skip.)
Starting Gmin stepping
Gmin = 10
Gmin = 1.07374
Gmin = 0.115292
Gmin = 0.0123794
Gmin = 0.00132923
vernier = 0.5
vernier = 0.25
vernier = 0.125
vernier = 0.0625
Gmin = 0.00100083
vernier = 0.03125
vernier = 0.015625
vernier = 0.0078125
vernier = 0.00390625
vernier = 0.00195312
Gmin = 0.00100083
vernier = 0.000976562
vernier = 0.000488281
Gmin = 0
Gmin stepping succeeded in finding the operating point.

Changing Tseed to 1e-10
Heightened Def Con from 1.00893e-10 to 5.50446e-10
Heightened Def Con from 1.0079e-09 to 1.0101e-09
Heightened Def Con from 1.65849e-09 to 2.15849e-09
Heightened Def Con from 9.15541e-09 to 9.15569e-09
Heightened Def Con from 1.2332e-08 to 1.2332e-08
Heightened Def Con from 1.71406e-08 to 1.72031e-08
Heightened Def Con from 1.72111e-08 to 1.72116e-08
Heightened Def Con from 2.07575e-08 to 2.07751e-08
Heightened Def Con from 2.08112e-08 to 2.08119e-08
Heightened Def Con from 2.53466e-08 to 2.53488e-08
Heightened Def Con from 2.001e-06 to 2.0021e-06
Heightened Def Con from 2.5721e-06 to 2.5751e-06
Heightened Def Con from 2.5795e-06 to 2.5795e-06
Heightened Def Con from 2.00016e-05 to 2.00021e-05
Heightened Def Con from 2.00092e-05 to 2.00092e-05
Heightened Def Con from 2.00092e-05 to 2.00092e-05
Heightened Def Con from 2.00122e-05 to 2.00122e-05
Heightened Def Con from 2.00172e-05 +to 2.00172e-05
Heightened Def Con from 2.00172e-05 to 2.00172e-05
Heightened Def Con from 2.00172e-05 to 2.00172e-05
Heightened Def Con from 2.00197e-05 to 2.00197e-05
Heightened Def Con from 2.00281e-05 to 2.00294e-05
Heightened Def Con from 2.2327e-05 to 2.2328e-05
Heightened Def Con from 2.2341e-05 to 2.2341e-05
Heightened Def Con from 4.00008e-05 to 4.00013e-05
Heightened Def Con from 4.00092e-05 to 4.00092e-05
Heightened Def Con from 4.00122e-05 to 4.00122e-05
Heightened Def Con from 4.00172e-05 to 4.00172e-05
Heightened Def Con from 4.00194e-05 to 4.00208e-05
Heightened Def Con from 4.0099e-05 to 4.00994e-05
Heightened Def Con from 6.0001e-05 to 6.00015e-05
Heightened Def Con from 6.00092e-05 to 6.00106e-05
Heightened Def Con from 6.00121e-05 +to 6.00121e-05
Heightened Def Con from 6.00174e-05 to 6.00174e-05
Heightened Def Con from 6.22199e-05 to 6.22199e-05
Heightened Def Con from 8.00092e-05 to 8.00105e-05
Heightened Def Con from 8.00122e-05 +to 8.00122e-05
Heightened Def Con from 8.00175e-05 to 8.00179e-05
Heightened Def Con from 8.00191e-05 to 8.00191e-05
Heightened Def Con from 8.01082e-05 to 8.01083e-05
Heightened Def Con from 8.22277e-05 to 8.22277e-05
Heightened Def Con from 0.000100001 to 0.000100007
Heightened Def Con from 0.00010001 to 0.00010001
Heightened Def Con from 0.00010001 to 0.00010001
Heightened Def Con from 0.000100012 to 0.000100012
Heightened Def Con from 0.000100012 to 0.000100012
Heightened Def Con from 0.000100017 to 0.000100017
Heightened Def Con from 0.000100018 to 0.000100018
Heightened Def Con from 0.000100018 to 0.000100018
Heightened Def Con from 0.000102001 to 0.000102004
Heightened Def Con from 0.000102247 to 0.00010225
Heightened Def Con from 0.000102252 to 0.000102252
Heightened Def Con from 0.000120001 to 0.000120007
Heightened Def Con from 0.00012001 to 0.00012001
Heightened Def Con from 0.00012001 to 0.00012001
Heightened Def Con from 0.000120011 to 0.000120012
Heightened Def Con from 0.000120012 +to 0.000120012
Heightened Def Con from 0.000120017 to 0.000120017
Heightened Def Con from 0.000120018 to 0.000120018
Heightened Def Con from 0.000120018 to 0.000120018
Heightened Def Con from 0.000120086 to 0.000120088
Heightened Def Con from 0.000122286 to 0.000122286
Heightened Def Con from 0.000122286 to 0.000122286
Heightened Def Con from 0.000122286 to 0.000122286
Heightened Def Con from 0.000122286 to 0.000122286
Heightened Def Con from 0.000140009 to 0.000140009
Heightened Def Con from 0.000140009 to 0.000140009
Heightened Def Con from 0.000140009 to 0.000140009
Heightened Def Con from 0.000140012 to 0.000140012
Heightened Def Con from 0.00014002 to 0.00014002
Heightened Def Con from 0.000140025 to 0.000140025
Heightened Def Con from 0.000140028 to 0.000140028
Heightened Def Con from 0.000140033 to 0.000140033
Heightened Def Con from 0.00014232 to 0.00014232
Heightened Def Con from 0.000160002 to 0.000160002
Heightened Def Con from 0.000160009 to 0.000160009
Heightened Def Con from 0.000160012 to 0.000160012
Heightened Def Con from 0.000160012 to 0.000160012
Heightened Def Con from 0.000160017 to 0.000160017
Heightened Def Con from 0.00016002 to 0.00016002
Heightened Def Con from 0.00016002 to 0.00016002
Heightened Def Con from 0.000160025 to 0.000160025
Heightened Def Con from 0.000160033 to 0.000160033
Heightened Def Con from 0.000160035 to 0.000160035
Heightened Def Con from 0.000162351 to 0.000162353
Heightened Def Con from 0.000162353 to 0.000162353
Heightened Def Con from 0.000180002 to 0.000180002
Heightened Def Con from 0.000180009 to 0.000180009
Heightened Def Con from 0.000180012 to 0.000180012
Heightened Def Con from 0.000180017 to 0.000180017
Heightened Def Con from 0.00018002 to 0.00018002
Heightened Def Con from 0.000180025 to 0.000180025
Heightened Def Con from 0.000180033 +to 0.000180033
Heightened Def Con from 0.000180035 to 0.000180035
Heightened Def Con from 0.000180035 to 0.000180035
Heightened Def Con from 0.000180035 to 0.000180035
Heightened Def Con from 0.000180063 to 0.000180063
Heightened Def Con from 0.000182383 to 0.000182383
Heightened Def Con from 0.000200002 to 0.000200006
Heightened Def Con from 0.00020001 +to 0.00020001
Heightened Def Con from 0.000200012 to 0.000200012
Heightened Def Con from 0.000200012 to 0.000200012
Heightened Def Con from 0.000200012 to 0.000200012
Heightened Def Con from 0.000200017 to 0.000200034
Heightened Def Con from 0.000200061 to 0.000200061
Heightened Def Con from 0.00020241 to 0.00020241
Heightened Def Con from 0.00020241 +to 0.00020241
Heightened Def Con from 0.00020241 to 0.00020241
Heightened Def Con from 0.000220012 to 0.000220012
Heightened Def Con from 0.000220012 to 0.000220012
Heightened Def Con from 0.000220017 to 0.000220017
Heightened Def Con from 0.00022002 to 0.00022002
Heightened Def Con from 0.00022002 to 0.00022002
Heightened Def Con from 0.000220025 to 0.000220025
Heightened Def Con from 0.000220025 to 0.000220025
Heightened Def Con from 0.000220029 to 0.000220029
Heightened Def Con from 0.000220036 to 0.000220036
Heightened Def Con from 0.000220057 to 0.000220057
Heightened Def Con from 0.000240002 to 0.000240002
Heightened Def Con from 0.000240009 to 0.000240009
Heightened Def Con from 0.000240009 to 0.000240009
Heightened Def Con from 0.000240012 to 0.000240012
Heightened Def Con from 0.000240017 to 0.000240017
Heightened Def Con from 0.00024002 +to 0.00024002
Heightened Def Con from 0.00024003 to 0.00024003
Heightened Def Con from 0.000240034 to 0.000240034
Heightened Def Con from 0.000242455 to 0.000242455
Heightened Def Con from 0.000260002 to 0.000260007
Heightened Def Con from 0.00026001 to 0.00026001
Heightened Def Con from 0.000260012 to 0.000260012
Heightened Def Con from 0.000260025 to 0.000260025
Heightened Def Con from 0.000260028 to 0.000260028
Heightened Def Con from 0.000260028 +to 0.000260028
Heightened Def Con from 0.000260032 to 0.000260032
Heightened Def Con from 0.000260032 to 0.000260032
Heightened Def Con from 0.000260056 to 0.000260056
Heightened Def Con from 0.000262473 to 0.000262473
Heightened Def Con from 0.000262473 to 0.000262473
Heightened Def Con from 0.000280009 to 0.000280009
Heightened Def Con from 0.000280009 to 0.000280009
Heightened Def Con from 0.000280012 to 0.000280012
Heightened Def Con from 0.000280017 to 0.000280017
Heightened Def Con from 0.000280017 to 0.000280017
Heightened Def Con from 0.00028002 to 0.00028002
Heightened Def Con from 0.00028002 to 0.00028002
Heightened Def Con from 0.00028003 to 0.00028003
Heightened Def Con from 0.000280051 to 0.000280051
Heightened Def Con from 0.000282489 to 0.000282489
Heightened Def Con from 0.000282489 to 0.000282489
Heightened Def Con from 0.000300002 to 0.000300002
Heightened Def Con from 0.000300009 to 0.000300009
Heightened Def Con from 0.000300012 to 0.000300012
Heightened Def Con from 0.000300012 to 0.000300012
Heightened Def Con from 0.000300017 to 0.000300017
Heightened Def Con from 0.000300017 to 0.000300017
Heightened Def Con from 0.00030002 to 0.00030002
Heightened Def Con from 0.00030002 to 0.00030002
Heightened Def Con from 0.000300025 to 0.000300025
Heightened Def Con from 0.000300025 to 0.000300025
Heightened Def Con from 0.000300031 to 0.000300031
Heightened Def Con from 0.000300035 to 0.000300035
Heightened Def Con from 0.000300045 to 0.000300045
Heightened Def Con from 0.000300045 to 0.000300045

Date: Wed Feb 26 00:12:19 2025
Total elapsed time: 1.805 seconds.

tnom = 27
temp = 27
method = modified trap
totiter = 113785
traniter = 112289
tranpoints = 29078
accept = 19706
rejected = 9543
matrix size = 76
fillins = 199
solver = Normal
Avg thread counts: 1.0/1.0/1.0/1.0
Matrix Compiler1: 18.55 KB object code size  4.9/2.6/[1.5]
Matrix Compiler2: 9.73 KB object code size  1.0/2.0/[0.6]

