Circuit: * D:\Work and Coper Onion\Senior Projects\Switch-Mode-Power-Supply\LTSpice Simulations\Buck Converter\Buck_Converter.asc

Direct Newton iteration failed to find .op point.  (Use ".option noopiter" to skip.)
Starting Gmin stepping
Gmin = 10
Gmin = 1.07374
Gmin = 0.115292
Gmin = 0.0123794
Gmin = 0.00132923
Gmin = 0.000142725
Gmin = 1.5325e-05
Gmin = 1.6455e-06
Gmin = 1.76685e-07
Gmin = 1.89714e-08
Gmin = 2.03704e-09
Gmin = 2.18725e-10
Gmin = 2.34854e-11
Gmin = 2.52173e-12
Gmin = 2.70769e-13
Gmin = 0
Gmin stepping succeeded in finding the operating point.


Date: Mon Feb 24 23:29:53 2025
Total elapsed time: 250.458 seconds.

tnom = 27
temp = 27
method = modified trap
totiter = 39240958
traniter = 39240516
tranpoints = 12513190
accept = 9030365
rejected = 3482825
matrix size = 50
fillins = 13
solver = Normal
Avg thread counts: 1.0/1.0/1.0/1.0
Matrix Compiler1: 3.77 KB object code size  1.0/0.7/[0.4]
Matrix Compiler2: 4.48 KB object code size  0.5/0.9/[0.3]

