Circuit: * D:\Work and Coper Onion\Senior Projects\Switch-Mode-Power-Supply\LTSpice Simulations\Buck Converter\Buck_Converter.asc

WARNING: Less than two connections to node n001.  This node is used by rload.
Direct Newton iteration for .op point succeeded.
Heightened Def Con from 0.000280001 to 0.000280001
Heightened Def Con from 0.000800001 to 0.000800001
Heightened Def Con from 0.0012 to 0.0012
Heightened Def Con from 0.00188 to 0.00188
Heightened Def Con from 0.0084 to 0.0084
Heightened Def Con from 0.0092 to 0.0092
Heightened Def Con from 0.00932 to 0.00932
Heightened Def Con from 0.01208 to 0.01208
Heightened Def Con from 0.03746 to 0.03746
Heightened Def Con from 0.05348 to 0.05348

Date: Mon Feb 17 01:58:59 2025
Total elapsed time: 8.192 seconds.

tnom = 27
temp = 27
method = modified trap
totiter = 2472359
traniter = 2472341
tranpoints = 887043
accept = 684608
rejected = 202445
matrix size = 23
fillins = 1
solver = Normal
Avg thread counts: 1.0/1.0/1.0/1.0
Matrix Compiler1: 1.33 KB object code size  0.5/0.4/[0.2]
Matrix Compiler2: 1.92 KB object code size  0.3/0.5/[0.2]

