Circuit: * D:\Work and Coper Onion\Senior Projects\Switch-Mode-Power-Supply\LTSpice Simulations\Buck Converter\Buck_Converter.asc

Direct Newton iteration for .op point succeeded.
Heightened Def Con from 0.00122 to 0.00122
Heightened Def Con from 0.00124 to 0.00124
Heightened Def Con from 0.0013 to 0.0013
Heightened Def Con from 0.00148 to 0.00148
Heightened Def Con from 0.00182 to 0.00182
Heightened Def Con from 0.00194 to 0.00194
Heightened Def Con from 0.002 to 0.002
Heightened Def Con from 0.00236 to 0.00236
Heightened Def Con from 0.0036 to 0.0036
Heightened Def Con from 0.00418 to 0.00418
Heightened Def Con from 0.00422 to 0.00422
Heightened Def Con from 0.00536 to 0.00536
Heightened Def Con from 0.00602 to 0.00602
Heightened Def Con from 0.00906 to 0.00906
Heightened Def Con from 0.00908 to 0.00908
Heightened Def Con from 0.00912 to 0.00912
Heightened Def Con from 0.00918 to 0.00918
Heightened Def Con from 0.00922 to 0.00922
Heightened Def Con from 0.00924 to 0.00924
Heightened Def Con from 0.00926 to 0.00926
Heightened Def Con from 0.0094 to 0.0094
Heightened Def Con from 0.00942 to 0.00942
Heightened Def Con from 0.00944 to 0.00944
Heightened Def Con from 0.00946 to 0.00946
Heightened Def Con from 0.0095 to 0.0095
Heightened Def Con from 0.00952 to 0.00952
Heightened Def Con from 0.00954 to 0.00954
Heightened Def Con from 0.00956 to 0.00956
Heightened Def Con from 0.00964 to 0.00964
Heightened Def Con from 0.00968 to 0.00968
Heightened Def Con from 0.0097 to 0.0097
Heightened Def Con from 0.00972 to 0.00972
Heightened Def Con from 0.00982 to 0.00982
Heightened Def Con from 0.00984 to 0.00984
Heightened Def Con from 0.00988 to 0.00988
Heightened Def Con from 0.0099 to 0.0099
Heightened Def Con from 0.00996 to 0.00996
Heightened Def Con from 0.01004 to 0.01004
Heightened Def Con from 0.01006 to 0.01006
Heightened Def Con from 0.01008 to 0.01008
Heightened Def Con from 0.01012 to 0.01012
Heightened Def Con from 0.01016 to 0.01016
Heightened Def Con from 0.01018 to 0.01018
Heightened Def Con from 0.0102 to 0.0102
Heightened Def Con from 0.01022 to 0.01022
Heightened Def Con from 0.01024 to 0.01024
Heightened Def Con from 0.01026 to 0.01026
Heightened Def Con from 0.01028 to 0.01028
Heightened Def Con from 0.01032 to 0.01032
Heightened Def Con from 0.01036 to 0.01036
Heightened Def Con from 0.0104 to 0.0104
Heightened Def Con from 0.01042 to 0.01042
Heightened Def Con from 0.01044 to 0.01044
Heightened Def Con from 0.01046 to 0.01046
Heightened Def Con from 0.0105 to 0.0105
Heightened Def Con from 0.01052 to 0.01052
Heightened Def Con from 0.01054 to 0.01054
Heightened Def Con from 0.01058 to 0.01058
Heightened Def Con from 0.01096 to 0.01096
Heightened Def Con from 0.01252 to 0.01252
Heightened Def Con from 0.01686 to 0.01686
Heightened Def Con from 0.0203 to 0.0203
Heightened Def Con from 0.02034 to 0.02034
Heightened Def Con from 0.0204 to 0.0204
Heightened Def Con from 0.02042 to 0.02042
Heightened Def Con from 0.02046 to 0.02046
Heightened Def Con from 0.02048 to 0.02048
Heightened Def Con from 0.0205 to 0.0205
Heightened Def Con from 0.02052 to 0.02052
Heightened Def Con from 0.02054 to 0.02054
Heightened Def Con from 0.02056 to 0.02056
Heightened Def Con from 0.0206 to 0.0206
Heightened Def Con from 0.02062 to 0.02062
Heightened Def Con from 0.02064 to 0.02064
Heightened Def Con from 0.02066 to 0.02066
Heightened Def Con from 0.02068 to 0.02068
Heightened Def Con from 0.0207 to 0.0207
Heightened Def Con from 0.02072 to 0.02072
Heightened Def Con from 0.02074 to 0.02074
Heightened Def Con from 0.02078 to 0.02078
Heightened Def Con from 0.02082 to 0.02082
Heightened Def Con from 0.02084 to 0.02084
Heightened Def Con from 0.02088 to 0.02088
Heightened Def Con from 0.0209 to 0.0209
Heightened Def Con from 0.02092 to 0.02092
Heightened Def Con from 0.02094 to 0.02094
Heightened Def Con from 0.02098 to 0.02098
Heightened Def Con from 0.021 to 0.021
Heightened Def Con from 0.02102 to 0.02102
Heightened Def Con from 0.02104 to 0.02104
Heightened Def Con from 0.02108 to 0.02108
Heightened Def Con from 0.0211 to 0.0211
Heightened Def Con from 0.02112 to 0.02112
Heightened Def Con from 0.02122 to 0.02122
Heightened Def Con from 0.02124 to 0.02124
Heightened Def Con from 0.02128 to 0.02128
Heightened Def Con from 0.0213 to 0.0213
Heightened Def Con from 0.02132 to 0.02132
Heightened Def Con from 0.02136 to 0.02136
Heightened Def Con from 0.0214 to 0.0214
Heightened Def Con from 0.02144 to 0.02144
Heightened Def Con from 0.02146 to 0.02146
Heightened Def Con from 0.0215 to 0.0215
Heightened Def Con from 0.02152 to 0.02152
Heightened Def Con from 0.02154 to 0.02154
Heightened Def Con from 0.02156 to 0.02156
Heightened Def Con from 0.02158 to 0.02158
Heightened Def Con from 0.0216 to 0.0216
Heightened Def Con from 0.02162 to 0.02162
Heightened Def Con from 0.02164 to 0.02164
Heightened Def Con from 0.02166 to 0.02166
Heightened Def Con from 0.02168 to 0.02168
Heightened Def Con from 0.0217 to 0.0217
Heightened Def Con from 0.02174 to 0.02174
Heightened Def Con from 0.02362 to 0.02362
Heightened Def Con from 0.02894 to 0.02894
Heightened Def Con from 0.02926 to 0.02926
Heightened Def Con from 0.02932 to 0.02932
Heightened Def Con from 0.02948 to 0.02948
Heightened Def Con from 0.0298 to 0.0298
Heightened Def Con from 0.02984 to 0.02984
Heightened Def Con from 0.03 to 0.03
Heightened Def Con from 0.03006 to 0.03006
Heightened Def Con from 0.03008 to 0.03008
Heightened Def Con from 0.0301 to 0.0301
Heightened Def Con from 0.03012 to 0.03012
Heightened Def Con from 0.03116 to 0.03116
Heightened Def Con from 0.0317 to 0.0317
Heightened Def Con from 0.03408 to 0.03408
Heightened Def Con from 0.03708 to 0.03708
Heightened Def Con from 0.03828 to 0.03828
Heightened Def Con from 0.03946 to 0.03946
Heightened Def Con from 0.04516 to 0.04516
Heightened Def Con from 0.0457 to 0.0457
Heightened Def Con from 0.04792 to 0.04792
Heightened Def Con from 0.05128 to 0.05128
Heightened Def Con from 0.0524 to 0.0524
Heightened Def Con from 0.05612 to 0.05612
Heightened Def Con from 0.0567 to 0.0567
Heightened Def Con from 0.05848 to 0.05848
Heightened Def Con from 0.06024 to 0.06024
Heightened Def Con from 0.0635 to 0.0635
Heightened Def Con from 0.06384 to 0.06384
Heightened Def Con from 0.06452 to 0.06452
Heightened Def Con from 0.06454 to 0.06454
Heightened Def Con from 0.06456 to 0.06456
Heightened Def Con from 0.06458 to 0.06458
Heightened Def Con from 0.06506 to 0.06506
Heightened Def Con from 0.06508 to 0.06508
Heightened Def Con from 0.0651 to 0.0651
Heightened Def Con from 0.06512 to 0.06512
Heightened Def Con from 0.06514 to 0.06514
Heightened Def Con from 0.06516 to 0.06516
Heightened Def Con from 0.06518 to 0.06518
Heightened Def Con from 0.0652 to 0.0652
Heightened Def Con from 0.06522 to 0.06522
Heightened Def Con from 0.06524 to 0.06524
Heightened Def Con from 0.06528 to 0.06528
Heightened Def Con from 0.0653 to 0.0653
Heightened Def Con from 0.06532 to 0.06532
Heightened Def Con from 0.06534 to 0.06534
Heightened Def Con from 0.06536 to 0.06536
Heightened Def Con from 0.06538 to 0.06538
Heightened Def Con from 0.06542 to 0.06542
Heightened Def Con from 0.06558 to 0.06558
Heightened Def Con from 0.06562 to 0.06562
Heightened Def Con from 0.06566 to 0.06566
Heightened Def Con from 0.06568 to 0.06568
Heightened Def Con from 0.06572 to 0.06572
Heightened Def Con from 0.06576 to 0.06576
Heightened Def Con from 0.06602 to 0.06602
Heightened Def Con from 0.06614 to 0.06614
Heightened Def Con from 0.06622 to 0.06622
Heightened Def Con from 0.06738 to 0.06738
Heightened Def Con from 0.0683 to 0.0683
Heightened Def Con from 0.06884 to 0.06884
Heightened Def Con from 0.06914 to 0.06914
Heightened Def Con from 0.06916 to 0.06916
Heightened Def Con from 0.0692 to 0.0692
Heightened Def Con from 0.07028 to 0.07028
Heightened Def Con from 0.07282 to 0.07282
Heightened Def Con from 0.07286 to 0.07286
Heightened Def Con from 0.07302 to 0.07302
Heightened Def Con from 0.07518 to 0.07518
Heightened Def Con from 0.07776 to 0.07776
Heightened Def Con from 0.07858 to 0.07858
Heightened Def Con from 0.0795 to 0.0795
Heightened Def Con from 0.08042 to 0.08042
Heightened Def Con from 0.08068 to 0.08068
Heightened Def Con from 0.0817 to 0.0817
Heightened Def Con from 0.0825 to 0.0825
Heightened Def Con from 0.08276 to 0.08276
Heightened Def Con from 0.0834 to 0.0834
Heightened Def Con from 0.08408 to 0.08408
Heightened Def Con from 0.08424 to 0.08424
Heightened Def Con from 0.08478 to 0.08478
Heightened Def Con from 0.08548 to 0.08548
Heightened Def Con from 0.08556 to 0.08556
Heightened Def Con from 0.08558 to 0.08558
Heightened Def Con from 0.0856 to 0.0856
Heightened Def Con from 0.08562 to 0.08562
Heightened Def Con from 0.08564 to 0.08564
Heightened Def Con from 0.08566 to 0.08566
Heightened Def Con from 0.08582 to 0.08582
Heightened Def Con from 0.08616 to 0.08616
Heightened Def Con from 0.0865 to 0.0865
Heightened Def Con from 0.08674 to 0.08674
Heightened Def Con from 0.08774 to 0.08774
Heightened Def Con from 0.09 to 0.09
Heightened Def Con from 0.09024 to 0.09024
Heightened Def Con from 0.09026 to 0.09026
Heightened Def Con from 0.09028 to 0.09028
Heightened Def Con from 0.0903 to 0.0903
Heightened Def Con from 0.09034 to 0.09034
Heightened Def Con from 0.09038 to 0.09038
Heightened Def Con from 0.09044 to 0.09044
Heightened Def Con from 0.0905 to 0.0905
Heightened Def Con from 0.0907 to 0.0907
Heightened Def Con from 0.09384 to 0.09384
Heightened Def Con from 0.09694 to 0.09694
Heightened Def Con from 0.09866 to 0.09866
Heightened Def Con from 0.11626 to 0.11626
Heightened Def Con from 0.1237 to 0.1237
Heightened Def Con from 0.12406 to 0.12406
Heightened Def Con from 0.12678 to 0.12678
Heightened Def Con from 0.12752 to 0.12752
Heightened Def Con from 0.12918 to 0.12918
Heightened Def Con from 0.13034 to 0.13034
Heightened Def Con from 0.13048 to 0.13048
Heightened Def Con from 0.13118 to 0.13118
Heightened Def Con from 0.13126 to 0.13126
Heightened Def Con from 0.13134 to 0.13134
Heightened Def Con from 0.13198 to 0.13198
Heightened Def Con from 0.1324 to 0.1324
Heightened Def Con from 0.13366 to 0.13366
Heightened Def Con from 0.13392 to 0.13392
Heightened Def Con from 0.13554 to 0.13554
Heightened Def Con from 0.13664 to 0.13664
Heightened Def Con from 0.13708 to 0.13708
Heightened Def Con from 0.13744 to 0.13744
Heightened Def Con from 0.1379 to 0.1379
Heightened Def Con from 0.13856 to 0.13856
Heightened Def Con from 0.14104 to 0.14104
Heightened Def Con from 0.14156 to 0.14156
Heightened Def Con from 0.14252 to 0.14252
Heightened Def Con from 0.14422 to 0.14422
Heightened Def Con from 0.14514 to 0.14514
Heightened Def Con from 0.14652 to 0.14652
Heightened Def Con from 0.15108 to 0.15108
Heightened Def Con from 0.153 to 0.153
Heightened Def Con from 0.15382 to 0.15382
Heightened Def Con from 0.15494 to 0.15494
Heightened Def Con from 0.15554 to 0.15554
Heightened Def Con from 0.15706 to 0.15706
Heightened Def Con from 0.15816 +to 0.15816
Heightened Def Con from 0.15884 to 0.15884
Heightened Def Con from 0.16136 to 0.16136
Heightened Def Con from 0.16172 to 0.16172
Heightened Def Con from 0.16506 to 0.16506
Heightened Def Con from 0.16712 to 0.16712
Heightened Def Con from 0.16808 to 0.16808
Heightened Def Con from 0.1683 to 0.1683
Heightened Def Con from 0.16888 to 0.16888
Heightened Def Con from 0.1691 to 0.1691
Heightened Def Con from 0.16944 to 0.16944
Heightened Def Con from 0.16962 to 0.16962
Heightened Def Con from 0.1719 to 0.1719
Heightened Def Con from 0.17218 to 0.17218
Heightened Def Con from 0.17298 to 0.17298
Heightened Def Con from 0.17912 to 0.17912
Heightened Def Con from 0.18008 to 0.18008
Heightened Def Con from 0.1802 to 0.1802
Heightened Def Con from 0.1803 to 0.1803
Heightened Def Con from 0.18074 to 0.18074
Heightened Def Con from 0.1812 to 0.1812
Heightened Def Con from 0.18184 to 0.18184
Heightened Def Con from 0.1832 to 0.1832
Heightened Def Con from 0.18468 to 0.18468
Heightened Def Con from 0.18682 to 0.18682
Heightened Def Con from 0.18816 to 0.18816
Heightened Def Con from 0.18908 to 0.18908
Heightened Def Con from 0.18934 to 0.18934
Heightened Def Con from 0.1897 to 0.1897
Heightened Def Con from 0.1899 to 0.1899
Heightened Def Con from 0.19054 to 0.19054
Heightened Def Con from 0.19076 to 0.19076
Heightened Def Con from 0.19092 to 0.19092
Heightened Def Con from 0.19136 to 0.19136
Heightened Def Con from 0.19242 to 0.19242
Heightened Def Con from 0.19256 to 0.19256
Heightened Def Con from 0.19476 to 0.19476
Heightened Def Con from 0.1948 to 0.1948
Heightened Def Con from 0.19544 to 0.19544
Heightened Def Con from 0.19556 to 0.19556
Heightened Def Con from 0.19572 to 0.19572
Heightened Def Con from 0.19586 to 0.19586
Heightened Def Con from 0.1971 to 0.1971
Heightened Def Con from 0.1976 to 0.1976

Date: Mon Feb 17 01:55:49 2025
Total elapsed time: 25.734 seconds.

tnom = 27
temp = 27
method = modified trap
totiter = 8003040
traniter = 8003033
tranpoints = 2694699
accept = 2124781
rejected = 570217
matrix size = 22
fillins = 1
solver = Normal
Avg thread counts: 1.0/1.0/1.0/1.0
Matrix Compiler1: 1.31 KB object code size  0.5/0.4/[0.2]
Matrix Compiler2: 1.88 KB object code size  0.2/0.4/[0.2]

