LTspice 24.1.3 for Windows
Circuit: C:\Users\anoli\OneDrive\Documents\Sproj\Opto_Isolator.net
Start Time: Wed Feb 19 01:50:37 2025
solver = Normal
Maximum thread count: 12
tnom = 27
temp = 27
method = modified trap
Direct Newton iteration for .op point succeeded.
Total elapsed time: 0.058 seconds.

Files loaded:
C:\Users\anoli\OneDrive\Documents\Sproj\Opto_Isolator.net
C:\Users\anoli\AppData\Local\LTspice\lib\cmp\standard.bjt
C:\Users\anoli\OneDrive\Documents\Sproj\AvagoHCNR200_MOD.txt

