Circuit: * D:\Work and Coper Onion\Senior Projects\Switch-Mode-Power-Supply\LTSpice Simulations\(Outdated) SMPS\Attempt12SMPS.asc

WARNING: Node NC_02 is floating.
WARNING: Node NC_04 is floating.
WARNING: Node N002 is floating.

WARNING: Less than two connections to node nc_01.  This node is used by d1.
WARNING: Less than two connections to node nc_02.  This node is used by d1.
WARNING: Less than two connections to node nc_03.  This node is used by d6.
WARNING: Less than two connections to node nc_04.  This node is used by d6.
WARNING: Less than two connections to node vbias.  This node is used by v3.
WARNING: Less than two connections to node vbias-.  This node is used by v6.
Direct Newton iteration for .op point succeeded.
Heightened Def Con from 0.000210001 to 0.000210002
Heightened Def Con from 0.00036 to 0.00036001
Heightened Def Con from 0.00057 to 0.000570033
Heightened Def Con from 0.0006 to 0.000600006
Heightened Def Con from 0.000609931 to 0.000609933
Heightened Def Con from 0.000609933 to 0.000609939
Heightened Def Con from 0.000609994 to 0.000609996
Heightened Def Con from 0.000609996 to 0.000610033
Heightened Def Con from 0.000629912 to 0.000629917
Heightened Def Con from 0.000629977 to 0.00062998
Heightened Def Con from 0.00062998 to 0.000629986
Heightened Def Con from 0.000629999 to 0.000630033
Heightened Def Con from 0.000650001 to 0.000650033
Heightened Def Con from 0.000669987 to 0.000669989
Heightened Def Con from 0.00066999 to 0.000669993
Heightened Def Con from 0.00067 to 0.000670032
Heightened Def Con from 0.000709719 to 0.000709724
Heightened Def Con from 0.000709948 to 0.000709949
Heightened Def Con from 0.000709949 to 0.000709955
Heightened Def Con from 0.00071 to 0.000710032
Heightened Def Con from 0.000730001 to 0.000730032
Heightened Def Con from 0.000749828 to 0.000749835
Heightened Def Con from 0.000749881 to 0.000749886
Heightened Def Con from 0.000749986 to 0.000749987
Heightened Def Con from 0.000749987 to 0.000749994
Heightened Def Con from 0.00077 to 0.000770032
Heightened Def Con from 0.000789936 to 0.000789942
Heightened Def Con from 0.000789955 to 0.000789958
Heightened Def Con from 0.000789958 to 0.000789962
Heightened Def Con from 0.000789963 to 0.00078997
Heightened Def Con from 0.000789988 to 0.000789992
Heightened Def Con from 0.000789996 to 0.00079
Heightened Def Con from 0.00079 to 0.000790032
Heightened Def Con from 0.00080999 to 0.000809993
Heightened Def Con from 0.000809993 to 0.000809994
Heightened Def Con from 0.000809994 to 0.00081
Heightened Def Con from 0.00086 to 0.000860008
Heightened Def Con from 0.000869377 to 0.000869382
Heightened Def Con from 0.000869799 to 0.000869804
Heightened Def Con from 0.000869946 to 0.000869948
Heightened Def Con from 0.000869948 to 0.000869951
Heightened Def Con from 0.000869973 to 0.000869974
Heightened Def Con from 0.000869974 to 0.00086998
Heightened Def Con from 0.00087 to 0.000870032
Heightened Def Con from 0.000889991 to 0.000889996
Heightened Def Con from 0.000890001 to 0.000890032
Heightened Def Con from 0.000910001 to 0.000910032
Heightened Def Con from 0.000929997 to 0.000929998
Heightened Def Con from 0.000929998 to 0.000930031
Heightened Def Con from 0.00094 to 0.000940008
Heightened Def Con from 0.00098 to 0.000980006
Heightened Def Con from 0.00102 to 0.00102001
Heightened Def Con from 0.00105 to 0.00105003
Heightened Def Con from 0.00108 to 0.00108001
Heightened Def Con from 0.00111 to 0.00111003
Heightened Def Con from 0.00113 to 0.00113003
Heightened Def Con from 0.00115 to 0.00115003
Heightened Def Con from 0.00117 to 0.00117
Heightened Def Con from 0.00117 to 0.00117003
Heightened Def Con from 0.00118 to 0.00118001
Heightened Def Con from 0.00119 to 0.00119003
Heightened Def Con from 0.00121 to 0.00121
Heightened Def Con from 0.00121 to 0.00121003
Heightened Def Con from 0.00123 to 0.00123003
Heightened Def Con from 0.00124 to 0.00124001
Heightened Def Con from 0.00132 to 0.00132001
Heightened Def Con from 0.00133 to 0.00133003
Heightened Def Con from 0.00134 to 0.00134001
Heightened Def Con from 0.00135 to 0.00135003
Heightened Def Con from 0.00142 to 0.00142001
Heightened Def Con from 0.00146 to 0.00146001
Heightened Def Con from 0.00147 to 0.00147003
Heightened Def Con from 0.00149 to 0.00149003
Heightened Def Con from 0.00151 to 0.00151003
Heightened Def Con from 0.00156 to 0.00156001
Heightened Def Con from 0.00157 to 0.00157003
Heightened Def Con from 0.00158 to 0.00158001
Heightened Def Con from 0.00161 to 0.00161003
Heightened Def Con from 0.00163 to 0.00163003
Heightened Def Con from 0.00166 to 0.00166001
Heightened Def Con from 0.00167 to 0.00167003
Heightened Def Con from 0.00168 to 0.00168001
Heightened Def Con from 0.00169 to 0.00169003
Heightened Def Con from 0.00173 to 0.00173003
Heightened Def Con from 0.00174997 to 0.00174998
Heightened Def Con from 0.00174999 to 0.00174999
Heightened Def Con from 0.00174999 to 0.00175
Heightened Def Con from 0.00175 to 0.00175003
Heightened Def Con from 0.00177 to 0.00177003
Heightened Def Con from 0.00178 to 0.00178001
Heightened Def Con from 0.00179 to 0.00179003
Heightened Def Con from 0.0018 to 0.00180001
Heightened Def Con from 0.00180869 to 0.00180869
Heightened Def Con from 0.00180869 to 0.00180869
Heightened Def Con from 0.00180869 to 0.00180869
Heightened Def Con from 0.00180869 to 0.0018087
Heightened Def Con from 0.00180954 to 0.00180954
Heightened Def Con from 0.00180954 to 0.00180954
Heightened Def Con from 0.00180954 to 0.00180955
Heightened Def Con from 0.00180955 to 0.00180955
Heightened Def Con from 0.00180955 to 0.00180955
Heightened Def Con from 0.00180955 to 0.00180956
Heightened Def Con from 0.00180956 to 0.00180956
Heightened Def Con from 0.00180994 to 0.00180995
Heightened Def Con from 0.00180995 to 0.00180995
Heightened Def Con from 0.00180998 to 0.00180999
Heightened Def Con from 0.00180999 to 0.00180999
Heightened Def Con from 0.00180999 to 0.00181
Heightened Def Con from 0.00182 to 0.00182001
Heightened Def Con from 0.00182959 to 0.0018296
Heightened Def Con from 0.00182961 to 0.00182961
Heightened Def Con from 0.00182989 to 0.00182989
Heightened Def Con from 0.00182995 to 0.00182996
Heightened Def Con from 0.00183 to 0.00183003
Heightened Def Con from 0.00189 to 0.00189
Heightened Def Con from 0.0019 to 0.00190001
Heightened Def Con from 0.00192 to 0.00192001
Heightened Def Con from 0.0019299 to 0.00192991
Heightened Def Con from 0.00192991 to 0.00192992
Heightened Def Con from 0.00192998 to 0.00192999
Heightened Def Con from 0.00192999 to 0.00192999
Heightened Def Con from 0.00192999 to 0.00192999
Heightened Def Con from 0.00192999 to 0.00193
Heightened Def Con from 0.00193 to 0.00193003
Heightened Def Con from 0.00194 to 0.00194001
Heightened Def Con from 0.00195 to 0.00195003
Heightened Def Con from 0.00196 to 0.00196001
Heightened Def Con from 0.00197 to 0.00197003
Heightened Def Con from 0.00197999 to 0.00197999
Heightened Def Con from 0.00198 to 0.00198001
Heightened Def Con from 0.00199 to 0.00199003
Heightened Def Con from 0.002 to 0.00200001
Heightened Def Con from 0.00201 to 0.00201003
Heightened Def Con from 0.00205 to 0.00205
Heightened Def Con from 0.00206 to 0.00206001
Heightened Def Con from 0.00207997 to 0.00207997
Heightened Def Con from 0.00208964 to 0.00208964
Heightened Def Con from 0.00208965 to 0.00208965
Heightened Def Con from 0.00208965 to 0.00208965
Heightened Def Con from 0.00208966 to 0.00208966
Heightened Def Con from 0.00208988 to 0.00208988
Heightened Def Con from 0.00208988 to 0.00208988
Heightened Def Con from 0.00208988 to 0.00208988
Heightened Def Con from 0.00208988 to 0.00208989
Heightened Def Con from 0.00208998 to 0.00208998
Heightened Def Con from 0.00208998 to 0.00208999
Heightened Def Con from 0.00208999 to 0.00208999
Heightened Def Con from 0.00209 to 0.00209
Heightened Def Con from 0.00209 to 0.00209
Heightened Def Con from 0.0021 to 0.00210001
Heightened Def Con from 0.00214 to 0.00214001
Heightened Def Con from 0.00215 to 0.00215003
Heightened Def Con from 0.00218 to 0.00218001
Heightened Def Con from 0.00219 to 0.00219
Heightened Def Con from 0.00219 to 0.00219003
Heightened Def Con from 0.00222 to 0.00222001
Heightened Def Con from 0.00222978 to 0.00222978
Heightened Def Con from 0.00222979 to 0.00222979
Heightened Def Con from 0.00222979 to 0.00222979
Heightened Def Con from 0.00222979 to 0.00222979
Heightened Def Con from 0.00222979 to 0.00222979
Heightened Def Con from 0.00222979 to 0.0022298
Heightened Def Con from 0.0022298 to 0.0022298
Heightened Def Con from 0.0022298 to 0.0022298
Heightened Def Con from 0.0022298 to 0.0022298
Heightened Def Con from 0.0022298 to 0.00222981
Heightened Def Con from 0.00222981 to 0.00222981
Heightened Def Con from 0.00222981 to 0.00222981
Heightened Def Con from 0.00222981 to 0.00222981
Heightened Def Con from 0.00222981 to 0.00222981
Heightened Def Con from 0.00222996 to 0.00222997
Heightened Def Con from 0.00222997 to 0.00222997
Heightened Def Con from 0.00222997 to 0.00222997
Heightened Def Con from 0.00222997 to 0.00222998
Heightened Def Con from 0.00222998 to 0.00222998
Heightened Def Con from 0.00222998 to 0.00222998
Heightened Def Con from 0.00222998 to 0.00222998
Heightened Def Con from 0.00222998 to 0.00222999
Heightened Def Con from 0.00222999 to 0.00222999
Heightened Def Con from 0.00223 to 0.00223003
Heightened Def Con from 0.00225 to 0.00225003
Heightened Def Con from 0.00226 to 0.00226001
Heightened Def Con from 0.00227 to 0.00227003
Heightened Def Con from 0.00228 to 0.00228001
Heightened Def Con from 0.0023 to 0.00230001
Heightened Def Con from 0.00231 to 0.00231003
Heightened Def Con from 0.00234 to 0.00234001
Heightened Def Con from 0.00235 to 0.00235003
Heightened Def Con from 0.00235999 to 0.00236
Heightened Def Con from 0.00236 to 0.00236001
Heightened Def Con from 0.00238 to 0.00238001
Heightened Def Con from 0.00239 to 0.00239003
Heightened Def Con from 0.0024 to 0.00240001
Heightened Def Con from 0.00240991 to 0.00240992
Heightened Def Con from 0.00240992 to 0.00240992
Heightened Def Con from 0.00240992 to 0.00240992
Heightened Def Con from 0.00240992 to 0.00240992
Heightened Def Con from 0.00240992 to 0.00240992
Heightened Def Con from 0.00240992 to 0.00240993
Heightened Def Con from 0.00240993 to 0.00240993
Heightened Def Con from 0.00240993 to 0.00240993
Heightened Def Con from 0.00240993 to 0.00240994
Heightened Def Con from 0.00240998 to 0.00240999
Heightened Def Con from 0.00240999 to 0.00240999
Heightened Def Con from 0.00240999 to 0.00240999
Heightened Def Con from 0.00240999 to 0.00241
Heightened Def Con from 0.00241 to 0.00241003
Heightened Def Con from 0.00241999 to 0.00241999
Heightened Def Con from 0.00243 to 0.00243003
Heightened Def Con from 0.00247 to 0.00247003
Heightened Def Con from 0.00248 to 0.00248001
Heightened Def Con from 0.00251 to 0.00251
Heightened Def Con from 0.00251 to 0.00251003
Heightened Def Con from 0.00251999 to 0.00251999
Heightened Def Con from 0.00254 to 0.00254001
Heightened Def Con from 0.00258 to 0.00258001
Heightened Def Con from 0.00259 to 0.00259
Heightened Def Con from 0.00259 to 0.00259003
Heightened Def Con from 0.0026 to 0.00260001
Heightened Def Con from 0.00261 to 0.00261003
Heightened Def Con from 0.00262999 to 0.00263
Heightened Def Con from 0.00263 to 0.00263
Heightened Def Con from 0.00263 to 0.00263
Heightened Def Con from 0.00263 to 0.00263
Heightened Def Con from 0.00264995 to 0.00264995
Heightened Def Con from 0.00264995 to 0.00264995
Heightened Def Con from 0.00264995 to 0.00264996
Heightened Def Con from 0.00264999 to 0.00264999
Heightened Def Con from 0.00264999 to 0.00264999
Heightened Def Con from 0.00264999 to 0.00265
Heightened Def Con from 0.00265 to 0.00265
Heightened Def Con from 0.00265 to 0.00265003
Heightened Def Con from 0.00265973 to 0.00265974
Heightened Def Con from 0.00266 to 0.00266001
Heightened Def Con from 0.00266976 to 0.00266977
Heightened Def Con from 0.00266977 to 0.00266977
Heightened Def Con from 0.00266977 to 0.00266977
Heightened Def Con from 0.00266977 to 0.00266977
Heightened Def Con from 0.00266992 to 0.00266992
Heightened Def Con from 0.00266992 to 0.00266992
Heightened Def Con from 0.00266992 to 0.00266993
Heightened Def Con from 0.00266993 to 0.00266993
Heightened Def Con from 0.00266998 to 0.00266999
Heightened Def Con from 0.00266999 to 0.00266999
Heightened Def Con from 0.00266999 to 0.00266999
Heightened Def Con from 0.00266999 to 0.00266999
Heightened Def Con from 0.00266999 to 0.00267
Heightened Def Con from 0.00267 to 0.00267
Heightened Def Con from 0.00267 to 0.00267003
Heightened Def Con from 0.00269 to 0.00269003
Heightened Def Con from 0.0027 to 0.00270001
Heightened Def Con from 0.00270863 to 0.00270864
Heightened Def Con from 0.00270864 to 0.00270864
Heightened Def Con from 0.00270864 to 0.00270865
Heightened Def Con from 0.00270966 to 0.00270966
Heightened Def Con from 0.00270966 to 0.00270966
Heightened Def Con from 0.00270966 to 0.00270966
Heightened Def Con from 0.00270966 to 0.00270966
Heightened Def Con from 0.00270966 to 0.00270966
Heightened Def Con from 0.00270966 to 0.00270967
Heightened Def Con from 0.00270968 to 0.00270968
Heightened Def Con from 0.00270968 to 0.00270968
Heightened Def Con from 0.00270968 to 0.00270968
Heightened Def Con from 0.00270968 to 0.00270968
Heightened Def Con from 0.00270968 to 0.00270969
Heightened Def Con from 0.00270969 to 0.00270969
Heightened Def Con from 0.00270969 to 0.00270969
Heightened Def Con from 0.00270969 to 0.0027097
Heightened Def Con from 0.0027097 to 0.0027097
Heightened Def Con from 0.0027097 to 0.0027097
Heightened Def Con from 0.0027097 to 0.0027097
Heightened Def Con from 0.0027097 to 0.00270971
Heightened Def Con from 0.00270971 to 0.00270971
Heightened Def Con from 0.00270971 to 0.00270971
Heightened Def Con from 0.00270971 +to 0.00270972
Heightened Def Con from 0.00270972 to 0.00270972
Heightened Def Con from 0.00270972 to 0.00270973
Heightened Def Con from 0.00270996 to 0.00270997
Heightened Def Con from 0.00270997 to 0.00270997
Heightened Def Con from 0.00270997 to 0.00270998
Heightened Def Con from 0.00271 to 0.00271003
Heightened Def Con from 0.00272 to 0.00272001
Heightened Def Con from 0.00272868 to 0.00272869
Heightened Def Con from 0.00272946 to 0.00272946
Heightened Def Con from 0.00272946 to 0.00272946
Heightened Def Con from 0.00272946 to 0.00272947
Heightened Def Con from 0.00272947 to 0.00272947
Heightened Def Con from 0.00272947 to 0.00272947
Heightened Def Con from 0.00272947 to 0.00272947
Heightened Def Con from 0.00272947 to 0.00272947
Heightened Def Con from 0.00272947 to 0.00272948
Heightened Def Con from 0.00272948 to 0.00272948
Heightened Def Con from 0.00272948 to 0.00272948
Heightened Def Con from 0.00272948 to 0.00272949
Heightened Def Con from 0.00272949 to 0.00272949
Heightened Def Con from 0.00272949 to 0.00272949
Heightened Def Con from 0.00272949 to 0.00272949
Heightened Def Con from 0.00272949 to 0.00272949
Heightened Def Con from 0.00272949 to 0.00272949
Heightened Def Con from 0.00272949 to 0.0027295
Heightened Def Con from 0.0027295 to 0.0027295
Heightened Def Con from 0.0027295 to 0.0027295
Heightened Def Con from 0.0027295 to 0.00272951
Heightened Def Con from 0.00272951 to 0.00272951
Heightened Def Con from 0.00272951 to 0.00272952
Heightened Def Con from 0.00272952 to 0.00272952
Heightened Def Con from 0.00272952 to 0.00272952
Heightened Def Con from 0.00272988 to 0.00272988
Heightened Def Con from 0.00272989 to 0.00272989
Heightened Def Con from 0.00272989 to 0.00272989
Heightened Def Con from 0.00272989 to 0.0027299
Heightened Def Con from 0.00272998 to 0.00272998
Heightened Def Con from 0.00272998 to 0.00272998
Heightened Def Con from 0.00272998 to 0.00272999
Heightened Def Con from 0.00272999 to 0.00272999
Heightened Def Con from 0.00273 to 0.00273003
Heightened Def Con from 0.00275919 to 0.00275919
Heightened Def Con from 0.00278 to 0.00278001
Heightened Def Con from 0.00279 to 0.00279003
Heightened Def Con from 0.00281 to 0.00281
Heightened Def Con from 0.00281 to 0.00281
Heightened Def Con from 0.00281 to 0.00281003
Heightened Def Con from 0.00282996 to 0.00282996
Heightened Def Con from 0.00282996 to 0.00282997
Heightened Def Con from 0.00282997 to 0.00282997
Heightened Def Con from 0.00282999 to 0.00282999
Heightened Def Con from 0.00282999 to 0.00282999
Heightened Def Con from 0.00283 to 0.00283
Heightened Def Con from 0.00283 to 0.00283
Heightened Def Con from 0.00283 to 0.00283
Heightened Def Con from 0.00283 to 0.00283003
Heightened Def Con from 0.00285 to 0.00285003
Heightened Def Con from 0.00285998 to 0.00285998
Heightened Def Con from 0.00287 to 0.00287003
Heightened Def Con from 0.00289 to 0.00289003
Heightened Def Con from 0.0029 to 0.0029
Heightened Def Con from 0.00290993 to 0.00290993
Heightened Def Con from 0.00290993 to 0.00290993
Heightened Def Con from 0.00290993 to 0.00290993
Heightened Def Con from 0.00290993 to 0.00290993
Heightened Def Con from 0.00290994 to 0.00290994
Heightened Def Con from 0.00290994 to 0.00290994
Heightened Def Con from 0.00290994 to 0.00290994
Heightened Def Con from 0.00290994 +to 0.00290995
Heightened Def Con from 0.00290995 to 0.00290995
Heightened Def Con from 0.00290995 to 0.00290995
Heightened Def Con from 0.00290995 to 0.00290996
Heightened Def Con from 0.00290996 to 0.00290996
Heightened Def Con from 0.00290996 to 0.00290997
Heightened Def Con from 0.00290997 to 0.00290997
Heightened Def Con from 0.00290997 to 0.00290997
Heightened Def Con from 0.00290997 to 0.00290997
Heightened Def Con from 0.00290997 to 0.00290997
Heightened Def Con from 0.00290997 to 0.00290997
Heightened Def Con from 0.00290997 to 0.00290997
Heightened Def Con from 0.00290997 to 0.00290997
Heightened Def Con from 0.00290997 to 0.00290998
Heightened Def Con from 0.00290999 to 0.00290999
Heightened Def Con from 0.00290999 to 0.00291
Heightened Def Con from 0.00291 to 0.00291003
Heightened Def Con from 0.00292 to 0.00292001
Heightened Def Con from 0.00292941 to 0.00292941
Heightened Def Con from 0.00292986 to 0.00292986
Heightened Def Con from 0.00292986 to 0.00292986
Heightened Def Con from 0.00292986 to 0.00292986
Heightened Def Con from 0.00292986 to 0.00292987
Heightened Def Con from 0.00292987 to 0.00292987
Heightened Def Con from 0.00292987 to 0.00292987
Heightened Def Con from 0.00292987 to 0.00292988
Heightened Def Con from 0.00292997 to 0.00292997
Heightened Def Con from 0.00292997 to 0.00292998
Heightened Def Con from 0.00292998 to 0.00292998
Heightened Def Con from 0.00292999 to 0.00292999
Heightened Def Con from 0.00292999 to 0.00292999
Heightened Def Con from 0.00292999 to 0.00293
Heightened Def Con from 0.00293 to 0.00293003
Heightened Def Con from 0.00294 to 0.00294001
Heightened Def Con from 0.00294912 to 0.00294912
Heightened Def Con from 0.00294912 to 0.00294913
Heightened Def Con from 0.00294992 to 0.00294992
Heightened Def Con from 0.00294992 to 0.00294992
Heightened Def Con from 0.00294992 to 0.00294992
Heightened Def Con from 0.00294992 to 0.00294992
Heightened Def Con from 0.00294992 to 0.00294993
Heightened Def Con from 0.00294997 to 0.00294998
Heightened Def Con from 0.00294998 to 0.00294998
Heightened Def Con from 0.00294998 to 0.00294998
Heightened Def Con from 0.00294999 to 0.00294999
Heightened Def Con from 0.00294999 to 0.00295
Heightened Def Con from 0.00295 to 0.00295
Heightened Def Con from 0.00295 to 0.00295003
Heightened Def Con from 0.00296 to 0.00296001
Heightened Def Con from 0.00297 to 0.00297003
Heightened Def Con from 0.00298 to 0.00298001
Heightened Def Con from 0.00298948 to 0.00298948
Heightened Def Con from 0.00298948 to 0.00298948
Heightened Def Con from 0.00298948 to 0.00298948
Heightened Def Con from 0.00298948 to 0.00298948
Heightened Def Con from 0.00298948 to 0.00298949
Heightened Def Con from 0.00298949 to 0.00298949
Heightened Def Con from 0.00298949 +to 0.00298949
Heightened Def Con from 0.00298949 to 0.00298949
Heightened Def Con from 0.00298949 to 0.0029895
Heightened Def Con from 0.0029895 to 0.0029895
Heightened Def Con from 0.0029895 to 0.0029895
Heightened Def Con from 0.00298986 to 0.00298986
Heightened Def Con from 0.00298986 to 0.00298987
Heightened Def Con from 0.00298987 to 0.00298987
Heightened Def Con from 0.00298997 to 0.00298997
Heightened Def Con from 0.00298997 to 0.00298997
Heightened Def Con from 0.00298997 to 0.00298998
Heightened Def Con from 0.00298998 to 0.00298998
Heightened Def Con from 0.00298998 to 0.00298999
Heightened Def Con from 0.00298999 to 0.00298999
Heightened Def Con from 0.00298999 to 0.00298999
Heightened Def Con from 0.00298999 to 0.00299
Heightened Def Con from 0.00299 to 0.00299003
Heightened Def Con from 0.003 to 0.003
Heightened Def Con from 0.00301993 to 0.00301994
Heightened Def Con from 0.00301999 to 0.00302
Heightened Def Con from 0.00305 to 0.00305003
Heightened Def Con from 0.00307 to 0.00307
Heightened Def Con from 0.00307 to 0.00307003
Heightened Def Con from 0.00308972 to 0.00308973
Heightened Def Con from 0.00308973 to 0.00308973
Heightened Def Con from 0.00308973 to 0.00308973
Heightened Def Con from 0.00308973 to 0.00308973
Heightened Def Con from 0.00308973 +to 0.00308973
Heightened Def Con from 0.00308973 to 0.00308974
Heightened Def Con from 0.00308974 to 0.00308974
Heightened Def Con from 0.00308974 to 0.00308974
Heightened Def Con from 0.00308975 to 0.00308975
Heightened Def Con from 0.00308975 to 0.00308975
Heightened Def Con from 0.00308975 to 0.00308975
Heightened Def Con from 0.00308992 to 0.00308992
Heightened Def Con from 0.00308992 to 0.00308993
Heightened Def Con from 0.00308993 to 0.00308993
Heightened Def Con from 0.00308993 to 0.00308993
Heightened Def Con from 0.00308993 to 0.00308993
Heightened Def Con from 0.00308993 to 0.00308994
Heightened Def Con from 0.00308994 to 0.00308994
Heightened Def Con from 0.00308994 to 0.00308994
Heightened Def Con from 0.00308994 to 0.00308994
Heightened Def Con from 0.00308994 to 0.00308995
Heightened Def Con from 0.00308999 to 0.00308999
Heightened Def Con from 0.00308999 to 0.00308999
Heightened Def Con from 0.00308999 to 0.00309
Heightened Def Con from 0.00309 to 0.00309
Heightened Def Con from 0.00309 to 0.00309003
Heightened Def Con from 0.00310856 to 0.00310856
Heightened Def Con from 0.00310856 to 0.00310856
Heightened Def Con from 0.00310856 to 0.00310857
Heightened Def Con from 0.00310857 to 0.00310857
Heightened Def Con from 0.00310934 to 0.00310934
Heightened Def Con from 0.00310934 to 0.00310934
Heightened Def Con from 0.00310934 to 0.00310935
Heightened Def Con from 0.00310935 to 0.00310935
Heightened Def Con from 0.00310935 to 0.00310935
Heightened Def Con from 0.00310935 to 0.00310935
Heightened Def Con from 0.00310935 to 0.00310935
Heightened Def Con from 0.00310935 to 0.00310935
Heightened Def Con from 0.00310977 to 0.00310977
Heightened Def Con from 0.00310977 to 0.00310977
Heightened Def Con from 0.00310977 to 0.00310977
Heightened Def Con from 0.00310977 to 0.00310978
Heightened Def Con from 0.00310978 to 0.00310978
Heightened Def Con from 0.00310978 to 0.00310978
Heightened Def Con from 0.00310978 to 0.00310978
Heightened Def Con from 0.00310978 to 0.00310979
Heightened Def Con from 0.00310979 to 0.00310979
Heightened Def Con from 0.00310992 to 0.00310993
Heightened Def Con from 0.00310993 to 0.00310993
Heightened Def Con from 0.00310993 to 0.00310993
Heightened Def Con from 0.00311 to 0.00311
Heightened Def Con from 0.00311 to 0.00311
Heightened Def Con from 0.00311 to 0.00311003
Heightened Def Con from 0.00313 to 0.00313003
Heightened Def Con from 0.00314 to 0.00314001
Heightened Def Con from 0.00314966 to 0.00314966
Heightened Def Con from 0.00314966 to 0.00314967
Heightened Def Con from 0.00314967 to 0.00314967
Heightened Def Con from 0.00314967 to 0.00314968
Heightened Def Con from 0.00314968 to 0.00314968
Heightened Def Con from 0.00314968 to 0.00314968
Heightened Def Con from 0.00314999 to 0.00314999
Heightened Def Con from 0.00314999 to 0.00315
Heightened Def Con from 0.00315 to 0.00315003
Heightened Def Con from 0.00316 to 0.00316001
Heightened Def Con from 0.00316953 to 0.00316953
Heightened Def Con from 0.00316953 to 0.00316954
Heightened Def Con from 0.00316954 to 0.00316954
Heightened Def Con from 0.00316954 to 0.00316954
Heightened Def Con from 0.00316954 to 0.00316954
Heightened Def Con from 0.00316954 to 0.00316955
Heightened Def Con from 0.00316955 to 0.00316955
Heightened Def Con from 0.00316955 to 0.00316955
Heightened Def Con from 0.00316987 to 0.00316987
Heightened Def Con from 0.00316987 to 0.00316987
Heightened Def Con from 0.00316987 to 0.00316987
Heightened Def Con from 0.00316987 to 0.00316988
Heightened Def Con from 0.00316988 to 0.00316988
Heightened Def Con from 0.00316988 to 0.00316989
Heightened Def Con from 0.00316997 to 0.00316998
Heightened Def Con from 0.00316998 to 0.00316999
Heightened Def Con from 0.00316999 to 0.00316999
Heightened Def Con from 0.00317 to 0.00317
Heightened Def Con from 0.00317 to 0.00317003
Heightened Def Con from 0.00318994 to 0.00318994
Heightened Def Con from 0.00318994 to 0.00318994
Heightened Def Con from 0.00318994 to 0.00318994
Heightened Def Con from 0.00318994 to 0.00318994
Heightened Def Con from 0.00318994 to 0.00318994
Heightened Def Con from 0.00318994 to 0.00318994
Heightened Def Con from 0.00318994 to 0.00318995
Heightened Def Con from 0.00319 to 0.00319
Heightened Def Con from 0.00319 to 0.00319
Heightened Def Con from 0.00319 to 0.00319
Heightened Def Con from 0.00319 to 0.00319003
Heightened Def Con from 0.00321 to 0.00321003
Heightened Def Con from 0.00322 to 0.00322001
Heightened Def Con from 0.00322999 to 0.00322999
Heightened Def Con from 0.00322999 to 0.00323
Heightened Def Con from 0.00323 to 0.00323003
Heightened Def Con from 0.00325993 to 0.00325993
Heightened Def Con from 0.00332 to 0.00332001
Heightened Def Con from 0.00332857 to 0.00332858
Heightened Def Con from 0.00332858 to 0.00332858
Heightened Def Con from 0.00332858 to 0.00332858
Heightened Def Con from 0.00332858 to 0.00332859
Heightened Def Con from 0.00332859 to 0.00332859
Heightened Def Con from 0.00332859 to 0.00332859
Heightened Def Con from 0.00332859 to 0.0033286
Heightened Def Con from 0.0033286 to 0.0033286
Heightened Def Con from 0.0033286 to 0.0033286
Heightened Def Con from 0.0033286 to 0.00332861
Heightened Def Con from 0.00332861 to 0.00332861
Heightened Def Con from 0.00332861 to 0.00332862
Heightened Def Con from 0.00332941 to 0.00332941
Heightened Def Con from 0.00332941 to 0.00332941
Heightened Def Con from 0.00332941 to 0.00332942
Heightened Def Con from 0.00332942 to 0.00332942
Heightened Def Con from 0.00332942 to 0.00332942
Heightened Def Con from 0.00332942 to 0.00332943
Heightened Def Con from 0.00332943 to 0.00332943
Heightened Def Con from 0.00332983 to 0.00332983
Heightened Def Con from 0.00332983 to 0.00332983
Heightened Def Con from 0.00332983 to 0.00332983
Heightened Def Con from 0.00332983 to 0.00332983
Heightened Def Con from 0.00332983 to 0.00332984
Heightened Def Con from 0.00332984 to 0.00332984
Heightened Def Con from 0.00332984 to 0.00332985
Heightened Def Con from 0.00332985 to 0.00332985
Heightened Def Con from 0.00332985 to 0.00332986
Heightened Def Con from 0.00332986 to 0.00332986
Heightened Def Con from 0.00332986 to 0.00332987
Heightened Def Con from 0.00332987 to 0.00332987
Heightened Def Con from 0.00332987 to 0.00332988
Heightened Def Con from 0.00332988 to 0.00332988
Heightened Def Con from 0.00332998 to 0.00332998
Heightened Def Con from 0.00332998 to 0.00332998
Heightened Def Con from 0.00332998 to 0.00332998
Heightened Def Con from 0.00332998 to 0.00332999
Heightened Def Con from 0.00332999 to 0.00332999
Heightened Def Con from 0.00333 to 0.00333
Heightened Def Con from 0.00333 to 0.00333003
Heightened Def Con from 0.00335 to 0.00335003
Heightened Def Con from 0.00336 to 0.00336001
Heightened Def Con from 0.00337 to 0.00337003
Heightened Def Con from 0.00337994 to 0.00337994
Heightened Def Con from 0.00339 to 0.00339003
Heightened Def Con from 0.00340957 to 0.00340958
Heightened Def Con from 0.00340958 to 0.00340958
Heightened Def Con from 0.00340958 to 0.00340959
Heightened Def Con from 0.00340959 to 0.00340959
Heightened Def Con from 0.00340959 to 0.0034096
Heightened Def Con from 0.00340992 to 0.00340992
Heightened Def Con from 0.00340992 to 0.00340993
Heightened Def Con from 0.00340993 to 0.00340993
Heightened Def Con from 0.00340993 to 0.00340993
Heightened Def Con from 0.00340994 to 0.00340994
Heightened Def Con from 0.00340994 to 0.00340994
Heightened Def Con from 0.00340994 to 0.00340995
Heightened Def Con from 0.00340995 to 0.00340995
Heightened Def Con from 0.00340995 to 0.00340995
Heightened Def Con from 0.00340995 to 0.00340995
Heightened Def Con from 0.00340995 to 0.00340996
Heightened Def Con from 0.00340996 to 0.00340996
Heightened Def Con from 0.00340999 to 0.00340999
Heightened Def Con from 0.00340999 to 0.00340999
Heightened Def Con from 0.00340999 to 0.00341
Heightened Def Con from 0.00341 to 0.00341003
Heightened Def Con from 0.00343 to 0.00343003
Heightened Def Con from 0.00345 to 0.00345003
Heightened Def Con from 0.00355 to 0.00355003
Heightened Def Con from 0.00356999 to 0.00356999
Heightened Def Con from 0.00356999 to 0.00356999
Heightened Def Con from 0.00356999 to 0.00357
Heightened Def Con from 0.00357 to 0.00357
Heightened Def Con from 0.00357 to 0.00357003
Heightened Def Con from 0.00359 to 0.00359003
Heightened Def Con from 0.00360997 to 0.00360998
Heightened Def Con from 0.00360998 to 0.00360998
Heightened Def Con from 0.00360998 to 0.00360998
Heightened Def Con from 0.00360998 to 0.00360998
Heightened Def Con from 0.00360998 to 0.00360998
Heightened Def Con from 0.00360998 to 0.00360999
Heightened Def Con from 0.00360999 to 0.00360999
Heightened Def Con from 0.00360999 to 0.00360999
Heightened Def Con from 0.00360999 to 0.00360999
Heightened Def Con from 0.00361 to 0.00361
Heightened Def Con from 0.00361 to 0.00361
Heightened Def Con from 0.00361 to 0.00361003
Heightened Def Con from 0.00361995 to 0.00361995
Heightened Def Con from 0.00363 to 0.00363003
Heightened Def Con from 0.00364 to 0.00364001
Heightened Def Con from 0.00365 to 0.00365003
Heightened Def Con from 0.00366 to 0.00366001
Heightened Def Con from 0.00367 to 0.00367003
Heightened Def Con from 0.00368841 to 0.00368842
Heightened Def Con from 0.00368842 to 0.00368842
Heightened Def Con from 0.00368943 to 0.00368943
Heightened Def Con from 0.00368943 to 0.00368944
Heightened Def Con from 0.00368944 to 0.00368944
Heightened Def Con from 0.00368944 to 0.00368944
Heightened Def Con from 0.00368944 to 0.00368944
Heightened Def Con from 0.00368944 to 0.00368945
Heightened Def Con from 0.00368981 to 0.00368981
Heightened Def Con from 0.00368981 to 0.00368982
Heightened Def Con from 0.00368982 to 0.00368982
Heightened Def Con from 0.00368997 to 0.00368998
Heightened Def Con from 0.00369 to 0.00369
Heightened Def Con from 0.00369 to 0.00369003
Heightened Def Con from 0.0037 to 0.00370001
Heightened Def Con from 0.00373 to 0.00373003
Heightened Def Con from 0.00374 to 0.00374001
Heightened Def Con from 0.00374937 to 0.00374937
Heightened Def Con from 0.00374976 to 0.00374977
Heightened Def Con from 0.00374977 to 0.00374977
Heightened Def Con from 0.00374977 to 0.00374977
Heightened Def Con from 0.00374977 to 0.00374977
Heightened Def Con from 0.00374977 to 0.00374978
Heightened Def Con from 0.00374992 to 0.00374992
Heightened Def Con from 0.00374992 to 0.00374993
Heightened Def Con from 0.00374993 to 0.00374993
Heightened Def Con from 0.00374993 to 0.00374993
Heightened Def Con from 0.00374993 to 0.00374993
Heightened Def Con from 0.00374993 to 0.00374993
Heightened Def Con from 0.00374993 to 0.00374994
Heightened Def Con from 0.00374994 to 0.00374994
Heightened Def Con from 0.00374994 to 0.00374994
Heightened Def Con from 0.00374994 to 0.00374994
Heightened Def Con from 0.00374994 to 0.00374994
Heightened Def Con from 0.00374994 to 0.00374994
Heightened Def Con from 0.00374994 to 0.00374995
Heightened Def Con from 0.00374995 to 0.00374996
Heightened Def Con from 0.00374999 to 0.00374999
Heightened Def Con from 0.00374999 to 0.00375
Heightened Def Con from 0.00375 to 0.00375
Heightened Def Con from 0.00375 to 0.00375
Heightened Def Con from 0.00375 to 0.00375003
Heightened Def Con from 0.00376 to 0.00376001
Heightened Def Con from 0.00376999 to 0.00376999
Heightened Def Con from 0.00376999 to 0.00377
Heightened Def Con from 0.00377 to 0.00377003
Heightened Def Con from 0.00378 to 0.00378001
Heightened Def Con from 0.00379 to 0.00379003
Heightened Def Con from 0.0038 to 0.00380001
Heightened Def Con from 0.00384 to 0.00384001
Heightened Def Con from 0.00385 to 0.00385
Heightened Def Con from 0.00385 to 0.00385003
Heightened Def Con from 0.00387 to 0.00387003
Heightened Def Con from 0.00388 to 0.00388001
Heightened Def Con from 0.0039 to 0.00390001
Heightened Def Con from 0.00390857 to 0.00390858
Heightened Def Con from 0.00390858 to 0.00390858
Heightened Def Con from 0.00390858 to 0.00390858
Heightened Def Con from 0.00390936 to 0.00390937
Heightened Def Con from 0.00390971 to 0.00390971
Heightened Def Con from 0.00390971 to 0.00390971
Heightened Def Con from 0.00390992 to 0.00390993
Heightened Def Con from 0.00390993 to 0.00390993
Heightened Def Con from 0.00390993 to 0.00390993
Heightened Def Con from 0.00390994 to 0.00390994
Heightened Def Con from 0.00390994 to 0.00390994
Heightened Def Con from 0.00390994 to 0.00390994
Heightened Def Con from 0.00390995 to 0.00390995
Heightened Def Con from 0.00390995 to 0.00390995
Heightened Def Con from 0.00390995 to 0.00390995
Heightened Def Con from 0.00390998 to 0.00390999
Heightened Def Con from 0.00390999 to 0.00390999
Heightened Def Con from 0.00390999 to 0.00390999
Heightened Def Con from 0.00390999 to 0.00391
Heightened Def Con from 0.00391 to 0.00391003
Heightened Def Con from 0.00393 to 0.00393003
Heightened Def Con from 0.00396 to 0.00396001
Heightened Def Con from 0.00397 to 0.00397003
Heightened Def Con from 0.00397997 to 0.00397997
Heightened Def Con from 0.00399938 to 0.00399938
Heightened Def Con from 0.00401 to 0.00401003
Heightened Def Con from 0.00402 to 0.00402001
Heightened Def Con from 0.00407 to 0.00407003
Heightened Def Con from 0.00408 to 0.00408001
Heightened Def Con from 0.00409 to 0.00409003
Heightened Def Con from 0.0041 to 0.00410001
Heightened Def Con from 0.00411 to 0.00411
Heightened Def Con from 0.00411 to 0.00411003
Heightened Def Con from 0.00411999 to 0.00412
Heightened Def Con from 0.00413 to 0.00413003
Heightened Def Con from 0.00414 to 0.00414001
Heightened Def Con from 0.00415 to 0.00415003
Heightened Def Con from 0.00416 to 0.00416001
Heightened Def Con from 0.00417 to 0.00417003
Heightened Def Con from 0.00419 to 0.00419003
Heightened Def Con from 0.0042 to 0.00420001
Heightened Def Con from 0.00423 to 0.00423003
Heightened Def Con from 0.00425 to 0.00425
Heightened Def Con from 0.00425 to 0.00425003
Heightened Def Con from 0.0043 to 0.00430001
Heightened Def Con from 0.00431 to 0.00431003
Heightened Def Con from 0.00432 to 0.00432001
Heightened Def Con from 0.00432994 to 0.00432994
Heightened Def Con from 0.00432994 to 0.00432994
Heightened Def Con from 0.00432994 to 0.00432995
Heightened Def Con from 0.00432995 to 0.00432995
Heightened Def Con from 0.00432995 to 0.00432995
Heightened Def Con from 0.00432996 +to 0.00432996
Heightened Def Con from 0.00432996 to 0.00432996
Heightened Def Con from 0.00432996 to 0.00432996
Heightened Def Con from 0.00432996 to 0.00432996
Heightened Def Con from 0.00432996 to 0.00432997
Heightened Def Con from 0.00432997 to 0.00432997
Heightened Def Con from 0.00432997 to 0.00432997
Heightened Def Con from 0.00432997 to 0.00432997
Heightened Def Con from 0.00432997 to 0.00432998
Heightened Def Con from 0.00432998 to 0.00432998
Heightened Def Con from 0.00432998 to 0.00432998
Heightened Def Con from 0.00432998 to 0.00432999
Heightened Def Con from 0.00432999 to 0.00432999
Heightened Def Con from 0.00432999 to 0.00432999
Heightened Def Con from 0.00432999 to 0.00432999
Heightened Def Con from 0.00432999 to 0.00432999
Heightened Def Con from 0.00432999 to 0.00432999
Heightened Def Con from 0.00432999 to 0.00432999
Heightened Def Con from 0.00432999 to 0.00433
Heightened Def Con from 0.00433 to 0.00433003
Heightened Def Con from 0.00433995 to 0.00433995
Heightened Def Con from 0.00434 to 0.00434001
Heightened Def Con from 0.00435 to 0.00435003
Heightened Def Con from 0.00437 to 0.00437003
Heightened Def Con from 0.00438 to 0.00438001
Heightened Def Con from 0.00439 to 0.00439
Heightened Def Con from 0.00439 to 0.00439003
Heightened Def Con from 0.00441 to 0.00441003
Heightened Def Con from 0.00442 to 0.00442001
Heightened Def Con from 0.00444 to 0.00444001
Heightened Def Con from 0.00445 to 0.00445
Heightened Def Con from 0.00445 to 0.00445003
Heightened Def Con from 0.00445988 to 0.00445988
Heightened Def Con from 0.00445999 to 0.00445999
Heightened Def Con from 0.00446 to 0.00446
Heightened Def Con from 0.00447992 to 0.00447993
Heightened Def Con from 0.00448 to 0.00448001
Heightened Def Con from 0.00449 to 0.00449003
Heightened Def Con from 0.0045 to 0.0045
Heightened Def Con from 0.00451 to 0.00451003
Heightened Def Con from 0.0045192 to 0.0045192
Heightened Def Con from 0.00452 to 0.00452001
Heightened Def Con from 0.00453 to 0.00453003
Heightened Def Con from 0.00453996 to 0.00453997
Heightened Def Con from 0.00453999 to 0.00453999
Heightened Def Con from 0.00454 to 0.00454001
Heightened Def Con from 0.00455 to 0.00455003
Heightened Def Con from 0.00456 to 0.00456001
Heightened Def Con from 0.00456859 to 0.0045686
Heightened Def Con from 0.0045686 to 0.0045686
Heightened Def Con from 0.0045686 to 0.0045686
Heightened Def Con from 0.0045686 to 0.0045686
Heightened Def Con from 0.0045686 to 0.00456861
Heightened Def Con from 0.00456861 to 0.00456861
Heightened Def Con from 0.00456861 to 0.00456861
Heightened Def Con from 0.00456861 to 0.00456861
Heightened Def Con from 0.00456862 to 0.00456862
Heightened Def Con from 0.00456947 to 0.00456947
Heightened Def Con from 0.00456996 to 0.00456996
Heightened Def Con from 0.00456996 to 0.00456996
Heightened Def Con from 0.00456999 to 0.00456999
Heightened Def Con from 0.00456999 to 0.00457
Heightened Def Con from 0.00457 to 0.00457
Heightened Def Con from 0.00457 to 0.00457
Heightened Def Con from 0.00457 to 0.00457003
Heightened Def Con from 0.00458 to 0.00458
Heightened Def Con from 0.00459 to 0.00459003
Heightened Def Con from 0.00459999 to 0.00459999
Heightened Def Con from 0.00460999 to 0.00461
Heightened Def Con from 0.00461 to 0.00461003
Heightened Def Con from 0.00461996 to 0.00461997
Heightened Def Con from 0.00462 to 0.00462001
Heightened Def Con from 0.00463 to 0.00463003
Heightened Def Con from 0.00464 to 0.00464001
Heightened Def Con from 0.00464902 to 0.00464902
Heightened Def Con from 0.00464902 to 0.00464902
Heightened Def Con from 0.00464902 to 0.00464903
Heightened Def Con from 0.00464903 to 0.00464903
Heightened Def Con from 0.00464903 to 0.00464904
Heightened Def Con from 0.00464904 to 0.00464904
Heightened Def Con from 0.00464988 to 0.00464989
Heightened Def Con from 0.00464989 to 0.00464989
Heightened Def Con from 0.00464989 to 0.0046499
Heightened Def Con from 0.0046499 to 0.0046499
Heightened Def Con from 0.0046499 to 0.0046499
Heightened Def Con from 0.0046499 to 0.0046499
Heightened Def Con from 0.0046499 to 0.0046499
Heightened Def Con from 0.0046499 to 0.0046499
Heightened Def Con from 0.0046499 to 0.00464991
Heightened Def Con from 0.00464991 to 0.00464991
Heightened Def Con from 0.00464991 to 0.00464991
Heightened Def Con from 0.00464991 to 0.00464992
Heightened Def Con from 0.00464992 to 0.00464992
Heightened Def Con from 0.00464992 to 0.00464993
Heightened Def Con from 0.00464993 to 0.00464993
Heightened Def Con from 0.00464993 to 0.00464993
Heightened Def Con from 0.00464998 to 0.00464998
Heightened Def Con from 0.00464998 to 0.00464998
Heightened Def Con from 0.00465 to 0.00465003
Heightened Def Con from 0.00465998 to 0.00465998
Heightened Def Con from 0.00465999 to 0.00465999
Heightened Def Con from 0.00466 to 0.00466001
Heightened Def Con from 0.00466995 to 0.00466995
Heightened Def Con from 0.00466995 to 0.00466996
Heightened Def Con from 0.00466996 to 0.00466996
Heightened Def Con from 0.00466996 to 0.00466996
Heightened Def Con from 0.00466996 to 0.00466996
Heightened Def Con from 0.00466996 to 0.00466997
Heightened Def Con from 0.00466997 to 0.00466997
Heightened Def Con from 0.00466997 to 0.00466998
Heightened Def Con from 0.00466999 to 0.00466999
Heightened Def Con from 0.00466999 to 0.00467
Heightened Def Con from 0.00467 to 0.00467003
Heightened Def Con from 0.00469 to 0.00469003
Heightened Def Con from 0.0047 to 0.00470001
Heightened Def Con from 0.0047097 to 0.00470971
Heightened Def Con from 0.00470997 to 0.00470997
Heightened Def Con from 0.00470997 to 0.00470998
Heightened Def Con from 0.00470998 to 0.00470998
Heightened Def Con from 0.00470998 to 0.00470998
Heightened Def Con from 0.00471 to 0.00471
Heightened Def Con from 0.00471 to 0.00471003
Heightened Def Con from 0.00472 to 0.00472001
Heightened Def Con from 0.00472885 to 0.00472885
Heightened Def Con from 0.00472885 to 0.00472885
Heightened Def Con from 0.00472885 to 0.00472886
Heightened Def Con from 0.00472886 to 0.00472886
Heightened Def Con from 0.00472886 to 0.00472886
Heightened Def Con from 0.00472886 to 0.00472886
Heightened Def Con from 0.00472886 to 0.00472886
Heightened Def Con from 0.00472886 to 0.00472886
Heightened Def Con from 0.00472886 to 0.00472887
Heightened Def Con from 0.00472887 to 0.00472887
Heightened Def Con from 0.00472887 to 0.00472887
Heightened Def Con from 0.00472887 to 0.00472887
Heightened Def Con from 0.00472887 to 0.00472888
Heightened Def Con from 0.00472964 to 0.00472964
Heightened Def Con from 0.00472964 to 0.00472964
Heightened Def Con from 0.00472993 to 0.00472993
Heightened Def Con from 0.00472993 to 0.00472993
Heightened Def Con from 0.00472993 to 0.00472993
Heightened Def Con from 0.00472993 to 0.00472994
Heightened Def Con from 0.00472994 to 0.00472994
Heightened Def Con from 0.00472994 to 0.00472995
Heightened Def Con from 0.00472995 to 0.00472995
Heightened Def Con from 0.00473 to 0.00473003
Heightened Def Con from 0.00474 to 0.00474
Heightened Def Con from 0.00474 to 0.00474001
Heightened Def Con from 0.00475 to 0.00475003
Heightened Def Con from 0.00478 to 0.00478001
Heightened Def Con from 0.00478999 to 0.00478999
Heightened Def Con from 0.00478999 to 0.00478999
Heightened Def Con from 0.00478999 to 0.00478999
Heightened Def Con from 0.00478999 to 0.00479
Heightened Def Con from 0.00479 to 0.00479
Heightened Def Con from 0.00479 to 0.00479
Heightened Def Con from 0.00479 to 0.00479003
Heightened Def Con from 0.0048 to 0.00480001
Heightened Def Con from 0.00481 to 0.00481003
Heightened Def Con from 0.00482 to 0.00482001
Heightened Def Con from 0.00483 to 0.00483003
Heightened Def Con from 0.00483935 to 0.00483936
Heightened Def Con from 0.00484 to 0.00484
Heightened Def Con from 0.00484 to 0.00484001
Heightened Def Con from 0.00485895 to 0.00485896
Heightened Def Con from 0.00486 to 0.00486001
Heightened Def Con from 0.00487 to 0.00487
Heightened Def Con from 0.00487 to 0.00487003
Heightened Def Con from 0.00488 to 0.00488
Heightened Def Con from 0.00488 to 0.00488001
Heightened Def Con from 0.00492 to 0.00492001
Heightened Def Con from 0.00495 to 0.00495003
Heightened Def Con from 0.00496 to 0.00496001
Heightened Def Con from 0.00498 to 0.00498001
Heightened Def Con from 0.00499 to 0.00499003
Heightened Def Con from 0.00499876 to 0.00499876
Heightened Def Con from 0.005 to 0.00500001
Heightened Def Con from 0.00500987 to 0.00500987
Heightened Def Con from 0.00500987 to 0.00500987
Heightened Def Con from 0.00500987 to 0.00500988
Heightened Def Con from 0.00500988 to 0.00500988
Heightened Def Con from 0.00500988 to 0.00500988
Heightened Def Con from 0.00500988 to 0.00500989
Heightened Def Con from 0.00500989 to 0.00500989
Heightened Def Con from 0.00500989 to 0.00500989
Heightened Def Con from 0.00500989 to 0.00500989
Heightened Def Con from 0.00500989 to 0.00500989
Heightened Def Con from 0.00500989 to 0.00500989
Heightened Def Con from 0.00500989 to 0.0050099
Heightened Def Con from 0.0050099 to 0.0050099
Heightened Def Con from 0.0050099 to 0.0050099
Heightened Def Con from 0.0050099 to 0.0050099
Heightened Def Con from 0.0050099 to 0.00500991
Heightened Def Con from 0.00500991 to 0.00500991
Heightened Def Con from 0.00500991 to 0.00500991
Heightened Def Con from 0.00500991 to 0.00500992
Heightened Def Con from 0.00500992 to 0.00500992
Heightened Def Con from 0.00500992 to 0.00500992
Heightened Def Con from 0.00500993 to 0.00500993
Heightened Def Con from 0.00500993 to 0.00500993
Heightened Def Con from 0.00500998 to 0.00500998
Heightened Def Con from 0.00500998 to 0.00500998
Heightened Def Con from 0.00500998 to 0.00500998
Heightened Def Con from 0.00500998 to 0.00500998
Heightened Def Con from 0.00500998 to 0.00500998
Heightened Def Con from 0.00500998 to 0.00500999
Heightened Def Con from 0.00500999 to 0.00500999
Heightened Def Con from 0.00500999 to 0.00500999
Heightened Def Con from 0.00500999 to 0.00500999
Heightened Def Con from 0.00500999 to 0.00501
Heightened Def Con from 0.00501 to 0.00501003
Heightened Def Con from 0.00501999 to 0.00501999
Heightened Def Con from 0.00502 to 0.00502001
Heightened Def Con from 0.00503 to 0.00503003
Heightened Def Con from 0.00503949 to 0.00503949
Heightened Def Con from 0.00503999 to 0.00503999
Heightened Def Con from 0.00504 to 0.00504001
Heightened Def Con from 0.00504999 to 0.00504999
Heightened Def Con from 0.00504999 to 0.00504999
Heightened Def Con from 0.00505 to 0.00505
Heightened Def Con from 0.00505 to 0.00505
Heightened Def Con from 0.00505 to 0.00505003
Heightened Def Con from 0.00505999 to 0.00506
Heightened Def Con from 0.00507 to 0.00507003
Heightened Def Con from 0.00507997 to 0.00507997
Heightened Def Con from 0.00509 to 0.00509003
Heightened Def Con from 0.00509987 to 0.00509987
Heightened Def Con from 0.00509997 to 0.00509997
Heightened Def Con from 0.00509999 to 0.00509999
Heightened Def Con from 0.0051 to 0.00510001
Heightened Def Con from 0.00511 to 0.00511003
Heightened Def Con from 0.00512 to 0.00512001
Heightened Def Con from 0.00513 to 0.00513003
Heightened Def Con from 0.00514 to 0.00514001
Heightened Def Con from 0.00515 to 0.00515003
Heightened Def Con from 0.00515931 to 0.00515932
Heightened Def Con from 0.00516 to 0.00516001
Heightened Def Con from 0.00516901 to 0.00516901
Heightened Def Con from 0.0051697 to 0.00516971
Heightened Def Con from 0.00516971 to 0.00516971
Heightened Def Con from 0.00516971 to 0.00516971
Heightened Def Con from 0.00516971 to 0.00516971
Heightened Def Con from 0.00516972 to 0.00516972
Heightened Def Con from 0.00516972 to 0.00516972
Heightened Def Con from 0.00516972 to 0.00516972
Heightened Def Con from 0.00516972 to 0.00516973
Heightened Def Con from 0.00516973 to 0.00516973
Heightened Def Con from 0.00516973 to 0.00516973
Heightened Def Con from 0.00516973 to 0.00516973
Heightened Def Con from 0.00516973 to 0.00516974
Heightened Def Con from 0.00516974 to 0.00516975
Heightened Def Con from 0.00516975 to 0.00516975
Heightened Def Con from 0.00516975 to 0.00516975
Heightened Def Con from 0.00516975 to 0.00516976
Heightened Def Con from 0.00516999 to 0.00516999
Heightened Def Con from 0.00516999 to 0.00516999
Heightened Def Con from 0.00517 to 0.00517003
Heightened Def Con from 0.0051792 to 0.0051792
Heightened Def Con from 0.00517994 to 0.00517994
Heightened Def Con from 0.00518 to 0.00518001
Heightened Def Con from 0.00519 to 0.00519003
Heightened Def Con from 0.0052 to 0.00520001
Heightened Def Con from 0.00521 to 0.00521003
Heightened Def Con from 0.00522 to 0.00522001
Heightened Def Con from 0.00527 to 0.00527003
Heightened Def Con from 0.00528 to 0.00528
Heightened Def Con from 0.00528987 to 0.00528988
Heightened Def Con from 0.00528988 to 0.00528988
Heightened Def Con from 0.00528988 to 0.00528988
Heightened Def Con from 0.00528988 to 0.00528988
Heightened Def Con from 0.00528988 to 0.00528988
Heightened Def Con from 0.00528988 to 0.00528989
Heightened Def Con from 0.00528998 to 0.00528998
Heightened Def Con from 0.00528998 to 0.00528999
Heightened Def Con from 0.00529 to 0.00529003
Heightened Def Con from 0.00529999 to 0.00529999
Heightened Def Con from 0.00530998 to 0.00530998
Heightened Def Con from 0.00530998 to 0.00530998
Heightened Def Con from 0.00530998 to 0.00530999
Heightened Def Con from 0.00531 to 0.00531
Heightened Def Con from 0.00531 to 0.00531
Heightened Def Con from 0.00531 to 0.00531
Heightened Def Con from 0.00532998 to 0.00532998
Heightened Def Con from 0.00532998 to 0.00532998
Heightened Def Con from 0.00532999 to 0.00532999
Heightened Def Con from 0.00532999 to 0.00532999
Heightened Def Con from 0.00532999 to 0.00532999
Heightened Def Con from 0.00532999 to 0.00533
Heightened Def Con from 0.00533 to 0.00533003
Heightened Def Con from 0.00534 to 0.00534001
Heightened Def Con from 0.00535 to 0.00535003
Heightened Def Con from 0.00536 to 0.00536001
Heightened Def Con from 0.00539 to 0.00539003
Heightened Def Con from 0.0054 to 0.0054
Heightened Def Con from 0.0054 to 0.00540001
Heightened Def Con from 0.00544 to 0.00544001
Heightened Def Con from 0.00546 to 0.00546001
Heightened Def Con from 0.00548 to 0.00548001
Heightened Def Con from 0.00549 to 0.00549003
Heightened Def Con from 0.0055 to 0.00550001
Heightened Def Con from 0.00552 to 0.00552
Heightened Def Con from 0.00552 to 0.00552001
Heightened Def Con from 0.00553 to 0.00553003
Heightened Def Con from 0.00553987 to 0.00553987
Heightened Def Con from 0.00555 to 0.00555003
Heightened Def Con from 0.00555994 to 0.00555994
Heightened Def Con from 0.00556 to 0.00556001
Heightened Def Con from 0.00559 to 0.00559003
Heightened Def Con from 0.00561 to 0.00561003
Heightened Def Con from 0.00562 to 0.00562001
Heightened Def Con from 0.00563 to 0.00563003
Heightened Def Con from 0.00564 to 0.00564
Heightened Def Con from 0.00564 to 0.00564001
Heightened Def Con from 0.00565 to 0.00565
Heightened Def Con from 0.00565 to 0.00565003
Heightened Def Con from 0.0056585 to 0.0056585
Heightened Def Con from 0.00565999 to 0.00565999
Heightened Def Con from 0.00566 to 0.00566001
Heightened Def Con from 0.00567 to 0.00567003
Heightened Def Con from 0.00567999 to 0.00568
Heightened Def Con from 0.00568 to 0.00568
Heightened Def Con from 0.00569 to 0.00569003
Heightened Def Con from 0.00569999 to 0.0057
Heightened Def Con from 0.00570995 to 0.00570995
Heightened Def Con from 0.00570998 to 0.00570999
Heightened Def Con from 0.00570999 to 0.00570999
Heightened Def Con from 0.00571 to 0.00571
Heightened Def Con from 0.0057194 to 0.00571941
Heightened Def Con from 0.00571977 to 0.00571977
Heightened Def Con from 0.00571989 to 0.0057199
Heightened Def Con from 0.00572 to 0.00572
Heightened Def Con from 0.00572 to 0.00572001
Heightened Def Con from 0.00575 to 0.00575003
Heightened Def Con from 0.00575998 to 0.00575998
Heightened Def Con from 0.00576 to 0.00576
Heightened Def Con from 0.00577 to 0.00577003
Heightened Def Con from 0.00577999 to 0.00577999
Heightened Def Con from 0.00578 to 0.00578
Heightened Def Con from 0.00578 to 0.00578001
Heightened Def Con from 0.00584 to 0.00584001
Heightened Def Con from 0.00585 to 0.00585003
Heightened Def Con from 0.00586 to 0.00586001
Heightened Def Con from 0.00587 to 0.00587003
Heightened Def Con from 0.00587886 to 0.00587886
Heightened Def Con from 0.00587998 to 0.00587999
Heightened Def Con from 0.00588 to 0.00588
Heightened Def Con from 0.00588 to 0.00588001
Heightened Def Con from 0.0059 to 0.0059
Heightened Def Con from 0.0059 to 0.00590001
Heightened Def Con from 0.00590944 +to 0.00590944
Heightened Def Con from 0.00590945 to 0.00590945
Heightened Def Con from 0.00590945 to 0.00590945
Heightened Def Con from 0.00590945 to 0.00590945
Heightened Def Con from 0.00590945 to 0.00590946
Heightened Def Con from 0.00590946 to 0.00590946
Heightened Def Con from 0.00590946 to 0.00590947
Heightened Def Con from 0.00590947 to 0.00590947
Heightened Def Con from 0.00590981 to 0.00590981
Heightened Def Con from 0.00590981 to 0.00590981
Heightened Def Con from 0.00590981 to 0.00590982
Heightened Def Con from 0.00590998 to 0.00590998
Heightened Def Con from 0.00590998 to 0.00590998
Heightened Def Con from 0.00590998 to 0.00590999
Heightened Def Con from 0.00591 to 0.00591003
Heightened Def Con from 0.00592 to 0.00592
Heightened Def Con from 0.00592 to 0.00592001
Heightened Def Con from 0.00593 to 0.00593003
Heightened Def Con from 0.00593867 to 0.00593868
Heightened Def Con from 0.00593949 to 0.00593949
Heightened Def Con from 0.00594 to 0.00594001
Heightened Def Con from 0.00595 to 0.00595003
Heightened Def Con from 0.00595999 to 0.00595999
Heightened Def Con from 0.00596 to 0.00596001
Heightened Def Con from 0.00597 to 0.00597003
Heightened Def Con from 0.00597998 to 0.00597998
Heightened Def Con from 0.00598 to 0.00598001
Heightened Def Con from 0.00598895 to 0.00598895
Heightened Def Con from 0.00598895 to 0.00598896
Heightened Def Con from 0.00598896 to 0.00598896
Heightened Def Con from 0.00598896 to 0.00598896
Heightened Def Con from 0.00598952 to 0.00598952
Heightened Def Con from 0.00598952 to 0.00598952
Heightened Def Con from 0.00598952 to 0.00598953
Heightened Def Con from 0.0059899 to 0.00598991
Heightened Def Con from 0.00598991 to 0.00598991
Heightened Def Con from 0.00598997 to 0.00598997
Heightened Def Con from 0.00598997 to 0.00598997
Heightened Def Con from 0.00598997 to 0.00598997
Heightened Def Con from 0.00598997 to 0.00598998
Heightened Def Con from 0.00599 to 0.00599003
Heightened Def Con from 0.00599856 to 0.00599856
Heightened Def Con from 0.00599998 to 0.00599999
Heightened Def Con from 0.00605 to 0.00605003
Heightened Def Con from 0.00605996 to 0.00605996
Heightened Def Con from 0.00609 to 0.00609003
Heightened Def Con from 0.00609955 to 0.00609955
Heightened Def Con from 0.0060998 to 0.0060998
Heightened Def Con from 0.0060998 to 0.00609981
Heightened Def Con from 0.00609998 to 0.00609998
Heightened Def Con from 0.0061 to 0.00610001
Heightened Def Con from 0.00611995 to 0.00611995
Heightened Def Con from 0.00612 to 0.00612
Heightened Def Con from 0.00612 to 0.00612001
Heightened Def Con from 0.00613 to 0.00613003
Heightened Def Con from 0.00613849 to 0.00613849
Heightened Def Con from 0.00613989 to 0.0061399
Heightened Def Con from 0.00614 to 0.00614001
Heightened Def Con from 0.00615 to 0.00615
Heightened Def Con from 0.00615 to 0.00615
Heightened Def Con from 0.00615 to 0.00615003
Heightened Def Con from 0.00615999 to 0.00616
Heightened Def Con from 0.00619 to 0.00619003
Heightened Def Con from 0.00623 to 0.00623003
Heightened Def Con from 0.00623997 to 0.00623998
Heightened Def Con from 0.00624 to 0.00624001
Heightened Def Con from 0.00624904 to 0.00624905
Heightened Def Con from 0.00624967 to 0.00624967
Heightened Def Con from 0.00624967 to 0.00624968
Heightened Def Con from 0.00624968 to 0.00624968
Heightened Def Con from 0.00624992 to 0.00624992
Heightened Def Con from 0.00624993 to 0.00624993
Heightened Def Con from 0.00624999 to 0.00624999
Heightened Def Con from 0.00624999 to 0.00624999
Heightened Def Con from 0.00625 to 0.00625
Heightened Def Con from 0.00625 to 0.00625
Heightened Def Con from 0.00625 to 0.00625003
Heightened Def Con from 0.00625979 to 0.00625979
Heightened Def Con from 0.00625997 to 0.00625997
Heightened Def Con from 0.00625999 to 0.00626
Heightened Def Con from 0.00626 to 0.00626001
Heightened Def Con from 0.00627 to 0.00627003
Heightened Def Con from 0.00629 to 0.00629
Heightened Def Con from 0.00629 to 0.00629003
Heightened Def Con from 0.0063 to 0.00630001
Heightened Def Con from 0.00631 to 0.00631
Heightened Def Con from 0.00631 to 0.00631003
Heightened Def Con from 0.00631994 to 0.00631994
Heightened Def Con from 0.00632 to 0.00632001
Heightened Def Con from 0.00632967 to 0.00632967
Heightened Def Con from 0.00632986 to 0.00632987
Heightened Def Con from 0.00632994 to 0.00632994
Heightened Def Con from 0.00632994 to 0.00632994
Heightened Def Con from 0.00632999 to 0.00632999
Heightened Def Con from 0.00632999 to 0.00633
Heightened Def Con from 0.00633 to 0.00633003
Heightened Def Con from 0.00634 to 0.00634001
Heightened Def Con from 0.00635 to 0.00635003
Heightened Def Con from 0.00637 to 0.00637003
Heightened Def Con from 0.00637862 to 0.00637863
Heightened Def Con from 0.00638 to 0.00638001
Heightened Def Con from 0.0064 to 0.00640001
Heightened Def Con from 0.00641 to 0.00641003
Heightened Def Con from 0.00641947 to 0.00641947
Heightened Def Con from 0.00641977 to 0.00641978
Heightened Def Con from 0.00641978 to 0.00641978
Heightened Def Con from 0.00641978 to 0.00641978
Heightened Def Con from 0.00642 to 0.00642
Heightened Def Con from 0.00644 to 0.00644001
Heightened Def Con from 0.00647945 to 0.00647945
Heightened Def Con from 0.00647945 to 0.00647945
Heightened Def Con from 0.00651 to 0.00651003
Heightened Def Con from 0.00653 to 0.00653003
Heightened Def Con from 0.00653996 to 0.00653996
Heightened Def Con from 0.00653999 to 0.00653999
Heightened Def Con from 0.00654 to 0.00654001
Heightened Def Con from 0.00655 to 0.00655003
Heightened Def Con from 0.00656 to 0.00656001
Heightened Def Con from 0.00657 to 0.00657003
Heightened Def Con from 0.00658 to 0.00658001
Heightened Def Con from 0.00659 to 0.00659003
Heightened Def Con from 0.00659874 to 0.00659874
Heightened Def Con from 0.00659997 to 0.00659997
Heightened Def Con from 0.00659999 to 0.00659999
Heightened Def Con from 0.00660998 to 0.00660998
Heightened Def Con from 0.00660998 to 0.00660999
Heightened Def Con from 0.00660999 to 0.00660999
Heightened Def Con from 0.00660999 to 0.00660999
Heightened Def Con from 0.00660999 to 0.00661003
Heightened Def Con from 0.00661979 to 0.00661979
Heightened Def Con from 0.00662 to 0.00662001
Heightened Def Con from 0.00663 to 0.00663003
Heightened Def Con from 0.00664 to 0.00664
Heightened Def Con from 0.00664 to 0.00664001
Heightened Def Con from 0.00665 to 0.00665003
Heightened Def Con from 0.00665842 to 0.00665843
Heightened Def Con from 0.00666 to 0.00666001
Heightened Def Con from 0.00667 to 0.00667003
Heightened Def Con from 0.00668 to 0.00668001
Heightened Def Con from 0.00669 to 0.00669003
Heightened Def Con from 0.0067 to 0.0067
Heightened Def Con from 0.0067 to 0.00670001
Heightened Def Con from 0.00671 to 0.00671
Heightened Def Con from 0.00671 to 0.00671003
Heightened Def Con from 0.00672 to 0.00672001
Heightened Def Con from 0.00673 to 0.00673003
Heightened Def Con from 0.00673968 to 0.00673968
Heightened Def Con from 0.00679 to 0.00679003
Heightened Def Con from 0.00679995 to 0.00679995
Heightened Def Con from 0.00679999 to 0.00679999
Heightened Def Con from 0.0068 to 0.00680001
Heightened Def Con from 0.00683 to 0.00683003
Heightened Def Con from 0.00684 to 0.00684001
Heightened Def Con from 0.00686 to 0.00686001
Heightened Def Con from 0.00687 to 0.00687003
Heightened Def Con from 0.00687865 to 0.00687865
Heightened Def Con from 0.00687971 to 0.00687971
Heightened Def Con from 0.00687998 to 0.00687998
Heightened Def Con from 0.00688 to 0.00688001
Heightened Def Con from 0.00689 to 0.00689003
Heightened Def Con from 0.00689996 to 0.00689996
Heightened Def Con from 0.00691975 to 0.00691975
Heightened Def Con from 0.00691998 to 0.00691999
Heightened Def Con from 0.00693 to 0.00693003
Heightened Def Con from 0.00696 to 0.00696001
Heightened Def Con from 0.00698 to 0.00698001
Heightened Def Con from 0.00702 to 0.00702001
Heightened Def Con from 0.00703 to 0.00703003
Heightened Def Con from 0.00703865 to 0.00703866
Heightened Def Con from 0.00703995 to 0.00703995
Heightened Def Con from 0.00704 to 0.00704
Heightened Def Con from 0.00715 to 0.00715003
Heightened Def Con from 0.00715876 to 0.00715876
Heightened Def Con from 0.00716 to 0.00716001
Heightened Def Con from 0.00717 to 0.00717003
Heightened Def Con from 0.00717998 to 0.00717999
Heightened Def Con from 0.00717999 to 0.00718
Heightened Def Con from 0.00718999 to 0.00719
Heightened Def Con from 0.00719 to 0.00719
Heightened Def Con from 0.00719 to 0.00719003
Heightened Def Con from 0.0072 to 0.00720001
Heightened Def Con from 0.00720994 to 0.00720995
Heightened Def Con from 0.00720995 to 0.00720995
Heightened Def Con from 0.00720995 to 0.00720996
Heightened Def Con from 0.00720999 to 0.00720999
Heightened Def Con from 0.00720999 to 0.00721
Heightened Def Con from 0.00721 to 0.00721
Heightened Def Con from 0.00721 to 0.00721003
Heightened Def Con from 0.00721999 to 0.00721999
Heightened Def Con from 0.00722 to 0.00722001
Heightened Def Con from 0.00722936 to 0.00722937
Heightened Def Con from 0.0072298 to 0.0072298
Heightened Def Con from 0.0072298 to 0.0072298
Heightened Def Con from 0.0072298 to 0.0072298
Heightened Def Con from 0.0072298 to 0.00722981
Heightened Def Con from 0.00722995 to 0.00722996
Heightened Def Con from 0.00722996 to 0.00722996
Heightened Def Con from 0.00722996 to 0.00722996
Heightened Def Con from 0.00722996 to 0.00722997
Heightened Def Con from 0.00722997 to 0.00722997
Heightened Def Con from 0.00722999 to 0.00722999
Heightened Def Con from 0.00723 to 0.00723003
Heightened Def Con from 0.00724 to 0.00724001
Heightened Def Con from 0.0073 to 0.00730001
Heightened Def Con from 0.00731 to 0.00731003
Heightened Def Con from 0.00731999 to 0.00731999
Heightened Def Con from 0.00735 to 0.00735003
Heightened Def Con from 0.00735999 to 0.00735999
Heightened Def Con from 0.00739 to 0.00739003
Heightened Def Con from 0.00739983 to 0.00739983
Heightened Def Con from 0.00739997 to 0.00739997
Heightened Def Con from 0.0074 to 0.0074
Heightened Def Con from 0.0074 to 0.00740001
Heightened Def Con from 0.00742 to 0.00742001
Heightened Def Con from 0.00743 to 0.00743003
Heightened Def Con from 0.00744 to 0.00744001
Heightened Def Con from 0.00751 to 0.00751003
Heightened Def Con from 0.00752 to 0.00752001
Heightened Def Con from 0.00753 to 0.00753002
Heightened Def Con from 0.00753866 to 0.00753866
Heightened Def Con from 0.00753866 to 0.00753866
Heightened Def Con from 0.00754 to 0.00754001
Heightened Def Con from 0.00754968 to 0.00754969
Heightened Def Con from 0.0075499 to 0.0075499
Heightened Def Con from 0.0075499 to 0.0075499
Heightened Def Con from 0.0075499 to 0.00754991
Heightened Def Con from 0.00754995 to 0.00754996
Heightened Def Con from 0.00754996 to 0.00754996
Heightened Def Con from 0.00754999 to 0.00754999
Heightened Def Con from 0.00755 to 0.00755003
Heightened Def Con from 0.00755998 to 0.00755999
Heightened Def Con from 0.00756 to 0.00756001
Heightened Def Con from 0.00758 to 0.00758001
Heightened Def Con from 0.00760994 to 0.00760994
Heightened Def Con from 0.00760998 to 0.00760999
Heightened Def Con from 0.00761 to 0.00761003
Heightened Def Con from 0.00761999 to 0.00761999
Heightened Def Con from 0.00762 to 0.00762
Heightened Def Con from 0.00763 to 0.00763003
Heightened Def Con from 0.00763871 to 0.00763871
Heightened Def Con from 0.00763871 to 0.00763872
Heightened Def Con from 0.00764 to 0.00764001
Heightened Def Con from 0.00764979 to 0.00764979
Heightened Def Con from 0.0076499 to 0.0076499
Heightened Def Con from 0.0076499 to 0.00764991
Heightened Def Con from 0.00764991 to 0.00764991
Heightened Def Con from 0.00764991 to 0.00764991
Heightened Def Con from 0.00764998 to 0.00764998
Heightened Def Con from 0.00764999 to 0.00765
Heightened Def Con from 0.00765 to 0.00765003
Heightened Def Con from 0.0077 to 0.00770001
Heightened Def Con from 0.00772975 to 0.00772975
Heightened Def Con from 0.00772999 to 0.00773
Heightened Def Con from 0.00773 to 0.00773003
Heightened Def Con from 0.00775 to 0.00775003
Heightened Def Con from 0.00776 to 0.00776001
Heightened Def Con from 0.0078 to 0.00780001
Heightened Def Con from 0.00780868 to 0.00780868
Heightened Def Con from 0.00780869 to 0.00780869
Heightened Def Con from 0.00780869 to 0.00780869
Heightened Def Con from 0.00780974 to 0.00780974
Heightened Def Con from 0.00780974 to 0.00780974
Heightened Def Con from 0.00780974 to 0.00780974
Heightened Def Con from 0.00780974 to 0.00780975
Heightened Def Con from 0.0078099 to 0.00780991
Heightened Def Con from 0.00780991 to 0.00780991
Heightened Def Con from 0.00780999 to 0.00780999
Heightened Def Con from 0.00780999 to 0.00781
Heightened Def Con from 0.00781 to 0.00781003
Heightened Def Con from 0.00782 to 0.00782
Heightened Def Con from 0.00782 to 0.00782001
Heightened Def Con from 0.00783 to 0.00783003
Heightened Def Con from 0.00787 to 0.00787003
Heightened Def Con from 0.0079 to 0.00790001
Heightened Def Con from 0.00790998 to 0.00790998
Heightened Def Con from 0.00790998 to 0.00790998
Heightened Def Con from 0.00790999 to 0.00790999
Heightened Def Con from 0.00790999 to 0.00791
Heightened Def Con from 0.00791 to 0.00791003
Heightened Def Con from 0.00791866 to 0.00791866
Heightened Def Con from 0.00793 to 0.00793003
Heightened Def Con from 0.00794 to 0.00794001
Heightened Def Con from 0.00795 to 0.00795003
Heightened Def Con from 0.00795999 to 0.00795999
Heightened Def Con from 0.00797 to 0.00797003
Heightened Def Con from 0.00797951 to 0.00797951
Heightened Def Con from 0.00803 to 0.00803003
Heightened Def Con from 0.00804 to 0.00804001
Heightened Def Con from 0.00804985 to 0.00804985
Heightened Def Con from 0.00804986 to 0.00804986
Heightened Def Con from 0.00804986 to 0.00804986
Heightened Def Con from 0.00804998 to 0.00804998
Heightened Def Con from 0.00804998 to 0.00804998
Heightened Def Con from 0.00804998 to 0.00804998
Heightened Def Con from 0.00804998 to 0.00804999
Heightened Def Con from 0.00805 to 0.00805003
Heightened Def Con from 0.00805874 to 0.00805874
Heightened Def Con from 0.00805978 to 0.00805978
Heightened Def Con from 0.00806 to 0.00806
Heightened Def Con from 0.00806 to 0.00806001
Heightened Def Con from 0.00807 to 0.00807003
Heightened Def Con from 0.00808 to 0.00808001
Heightened Def Con from 0.00810965 to 0.00810965
Heightened Def Con from 0.00810965 to 0.00810966
Heightened Def Con from 0.00810966 to 0.00810966
Heightened Def Con from 0.00810989 to 0.00810989
Heightened Def Con from 0.00810998 to 0.00810998
Heightened Def Con from 0.00810999 to 0.00810999
Heightened Def Con from 0.00811 to 0.00811
Heightened Def Con from 0.00811 to 0.00811003
Heightened Def Con from 0.00812 to 0.00812001
Heightened Def Con from 0.00815 to 0.00815003
Heightened Def Con from 0.00816 to 0.00816001
Heightened Def Con from 0.00819 to 0.00819003
Heightened Def Con from 0.00819926 to 0.00819926
Heightened Def Con from 0.00819996 to 0.00819996
Heightened Def Con from 0.0082 to 0.0082
Heightened Def Con from 0.0082 to 0.00820001
Heightened Def Con from 0.00822 to 0.00822001
Heightened Def Con from 0.00824976 to 0.00824976
Heightened Def Con from 0.00824976 to 0.00824976
Heightened Def Con from 0.00824976 to 0.00824977
Heightened Def Con from 0.00824977 to 0.00824977
Heightened Def Con from 0.00824994 to 0.00824994
Heightened Def Con from 0.00824994 to 0.00824994
Heightened Def Con from 0.00824994 to 0.00824995
Heightened Def Con from 0.00824995 to 0.00824995
Heightened Def Con from 0.00824998 to 0.00824998
Heightened Def Con from 0.00824998 to 0.00824998
Heightened Def Con from 0.00824999 to 0.00824999
Heightened Def Con from 0.00825 to 0.00825003
Heightened Def Con from 0.00825957 to 0.00825957
Heightened Def Con from 0.00826 to 0.00826001
Heightened Def Con from 0.00828 to 0.00828001
Heightened Def Con from 0.00828996 to 0.00828997
Heightened Def Con from 0.00828997 to 0.00828997
Heightened Def Con from 0.00828998 to 0.00828998
Heightened Def Con from 0.00828998 to 0.00828998
Heightened Def Con from 0.00828998 to 0.00828998
Heightened Def Con from 0.00828998 to 0.00828998
Heightened Def Con from 0.00828998 to 0.00828998
Heightened Def Con from 0.00828998 to 0.00828998
Heightened Def Con from 0.00828998 to 0.00828999
Heightened Def Con from 0.00828999 to 0.00828999
Heightened Def Con from 0.00828999 to 0.00828999
Heightened Def Con from 0.00829 to 0.00829
Heightened Def Con from 0.00829 to 0.00829003
Heightened Def Con from 0.00829985 to 0.00829985
Heightened Def Con from 0.00829996 to 0.00829996
Heightened Def Con from 0.00830999 to 0.00830999
Heightened Def Con from 0.00830999 to 0.00831
Heightened Def Con from 0.00831 to 0.00831
Heightened Def Con from 0.00831 to 0.00831003
Heightened Def Con from 0.00832 to 0.00832001
Heightened Def Con from 0.00832995 to 0.00832995
Heightened Def Con from 0.00832998 to 0.00832999
Heightened Def Con from 0.00833 to 0.00833003
Heightened Def Con from 0.00834 to 0.00834001
Heightened Def Con from 0.00835 to 0.00835003
Heightened Def Con from 0.00836 to 0.00836
Heightened Def Con from 0.00838 to 0.00838001
Heightened Def Con from 0.00841 to 0.00841003
Heightened Def Con from 0.00841914 to 0.00841915
Heightened Def Con from 0.00842 to 0.00842
Heightened Def Con from 0.00842 to 0.00842001
Heightened Def Con from 0.00843 to 0.00843003
Heightened Def Con from 0.00843998 to 0.00843998
Heightened Def Con from 0.00844 to 0.00844001
Heightened Def Con from 0.00847 to 0.00847
Heightened Def Con from 0.00847 to 0.00847003
Heightened Def Con from 0.00849 to 0.00849003
Heightened Def Con from 0.00849885 to 0.00849885
Heightened Def Con from 0.0085 to 0.00850001
Heightened Def Con from 0.00854 to 0.00854001
Heightened Def Con from 0.00856 to 0.00856001
Heightened Def Con from 0.0086 to 0.00860001
Heightened Def Con from 0.008608 to 0.008608
Heightened Def Con from 0.008608 to 0.00860801
Heightened Def Con from 0.00860945 to 0.00860945
Heightened Def Con from 0.00860945 to 0.00860946
Heightened Def Con from 0.00860988 to 0.00860988
Heightened Def Con from 0.00860988 to 0.00860988
Heightened Def Con from 0.00860988 to 0.00860989
Heightened Def Con from 0.00860996 to 0.00860996
Heightened Def Con from 0.00860996 to 0.00860996
Heightened Def Con from 0.00860996 to 0.00860997
Heightened Def Con from 0.00860997 to 0.00860997
Heightened Def Con from 0.00860997 to 0.00860997
Heightened Def Con from 0.00860998 to 0.00860998
Heightened Def Con from 0.00860998 to 0.00860998
Heightened Def Con from 0.00860998 to 0.00860998
Heightened Def Con from 0.00860998 to 0.00860998
Heightened Def Con from 0.00860999 to 0.00860999
Heightened Def Con from 0.00861 to 0.00861
Heightened Def Con from 0.00861 to 0.00861003
Heightened Def Con from 0.00861997 to 0.00861997
Heightened Def Con from 0.00862 to 0.00862001
Heightened Def Con from 0.00862973 to 0.00862974
Heightened Def Con from 0.00862974 to 0.00862974
Heightened Def Con from 0.00862992 to 0.00862992
Heightened Def Con from 0.00862992 to 0.00862992
Heightened Def Con from 0.00862992 to 0.00862993
Heightened Def Con from 0.00862993 to 0.00862993
Heightened Def Con from 0.00862993 to 0.00862993
Heightened Def Con from 0.00862998 to 0.00862999
Heightened Def Con from 0.00868 to 0.00868001
Heightened Def Con from 0.00868997 to 0.00868997
Heightened Def Con from 0.00868998 to 0.00868999
Heightened Def Con from 0.00868999 to 0.00868999
Heightened Def Con from 0.00868999 to 0.00868999
Heightened Def Con from 0.00868999 to 0.00869
Heightened Def Con from 0.00869 to 0.00869003
Heightened Def Con from 0.0087 to 0.0087
Heightened Def Con from 0.0087 to 0.00870001
Heightened Def Con from 0.00870987 to 0.00870988
Heightened Def Con from 0.00870997 to 0.00870998
Heightened Def Con from 0.00870998 to 0.00870998
Heightened Def Con from 0.00870998 to 0.00870998
Heightened Def Con from 0.00870998 to 0.00870999
Heightened Def Con from 0.00870999 to 0.00870999
Heightened Def Con from 0.00870999 to 0.00871
Heightened Def Con from 0.00874 to 0.00874001
Heightened Def Con from 0.00874975 to 0.00874975
Heightened Def Con from 0.00874991 to 0.00874991
Heightened Def Con from 0.00874991 to 0.00874992
Heightened Def Con from 0.00874992 to 0.00874992
Heightened Def Con from 0.00874992 to 0.00874992
Heightened Def Con from 0.00874992 to 0.00874992
Heightened Def Con from 0.00874993 to 0.00874993
Heightened Def Con from 0.00874993 to 0.00874993
Heightened Def Con from 0.00874993 to 0.00874993
Heightened Def Con from 0.00874993 to 0.00874994
Heightened Def Con from 0.00874994 to 0.00874994
Heightened Def Con from 0.00874994 to 0.00874995
Heightened Def Con from 0.00874997 to 0.00874998
Heightened Def Con from 0.00875 to 0.00875003
Heightened Def Con from 0.00876 to 0.00876
Heightened Def Con from 0.00876 to 0.00876001
Heightened Def Con from 0.00876997 to 0.00876997
Heightened Def Con from 0.00876997 to 0.00876997
Heightened Def Con from 0.00876998 to 0.00876999
Heightened Def Con from 0.00876999 to 0.00877
Heightened Def Con from 0.00877 to 0.00877
Heightened Def Con from 0.00879 to 0.00879003
Heightened Def Con from 0.00882 to 0.00882001
Heightened Def Con from 0.00882805 to 0.00882805
Heightened Def Con from 0.00882805 to 0.00882806
Heightened Def Con from 0.00882806 to 0.00882806
Heightened Def Con from 0.0088293 to 0.0088293
Heightened Def Con from 0.00882931 to 0.00882931
Heightened Def Con from 0.00882931 to 0.00882931
Heightened Def Con from 0.00882931 to 0.00882932
Heightened Def Con from 0.00882936 to 0.00882936
Heightened Def Con from 0.00882936 to 0.00882936
Heightened Def Con from 0.00882936 to 0.00882937
Heightened Def Con from 0.00882968 to 0.00882969
Heightened Def Con from 0.00882969 to 0.00882969
Heightened Def Con from 0.00882969 to 0.00882969
Heightened Def Con from 0.00882969 to 0.0088297
Heightened Def Con from 0.00882987 to 0.00882987
Heightened Def Con from 0.00883 to 0.00883
Heightened Def Con from 0.00887 to 0.00887003
Heightened Def Con from 0.00887996 to 0.00887996
Heightened Def Con from 0.00887999 to 0.00887999
Heightened Def Con from 0.00887999 to 0.00888
Heightened Def Con from 0.00888 to 0.00888001
Heightened Def Con from 0.00888966 to 0.00888966
Heightened Def Con from 0.00888967 to 0.00888967
Heightened Def Con from 0.00888967 to 0.00888967
Heightened Def Con from 0.00888967 to 0.00888968
Heightened Def Con from 0.00888969 to 0.00888969
Heightened Def Con from 0.00888969 to 0.0088897
Heightened Def Con from 0.00888995 to 0.00888995
Heightened Def Con from 0.00888995 to 0.00888995
Heightened Def Con from 0.00888995 to 0.00888996
Heightened Def Con from 0.00888996 to 0.00888996
Heightened Def Con from 0.00888998 to 0.00888999
Heightened Def Con from 0.00888999 to 0.00888999
Heightened Def Con from 0.00889 to 0.00889
Heightened Def Con from 0.00889 to 0.00889003
Heightened Def Con from 0.00889992 to 0.00889992
Heightened Def Con from 0.00891 to 0.00891
Heightened Def Con from 0.00891 to 0.00891003
Heightened Def Con from 0.00891999 to 0.00892
Heightened Def Con from 0.00892 to 0.00892001
Heightened Def Con from 0.00893999 to 0.00894
Heightened Def Con from 0.00895 to 0.00895
Heightened Def Con from 0.00897 to 0.00897003
Heightened Def Con from 0.00902997 to 0.00902998
Heightened Def Con from 0.00902999 to 0.00903
Heightened Def Con from 0.00903 to 0.00903003
Heightened Def Con from 0.00903997 to 0.00903997
Heightened Def Con from 0.00904 to 0.00904
Heightened Def Con from 0.00904998 to 0.00904998
Heightened Def Con from 0.00904998 to 0.00904999
Heightened Def Con from 0.00905 to 0.00905003
Heightened Def Con from 0.00906 to 0.00906001
Heightened Def Con from 0.00906995 to 0.00906996
Heightened Def Con from 0.00906996 to 0.00906996
Heightened Def Con from 0.00906996 to 0.00906996
Heightened Def Con from 0.00906996 to 0.00906997
Heightened Def Con from 0.00907 to 0.00907
Heightened Def Con from 0.00907 to 0.00907003
Heightened Def Con from 0.0090795 to 0.00907951
Heightened Def Con from 0.00908 to 0.00908001
Heightened Def Con from 0.00909 to 0.00909003
Heightened Def Con from 0.00909948 to 0.00909948
Heightened Def Con from 0.00909948 to 0.00909948
Heightened Def Con from 0.0091 to 0.0091
Heightened Def Con from 0.0091 to 0.00910001
Heightened Def Con from 0.00914 to 0.00914001
Heightened Def Con from 0.00914987 to 0.00914988
Heightened Def Con from 0.00915 to 0.00915003
Heightened Def Con from 0.00916 to 0.00916001
Heightened Def Con from 0.00918 to 0.00918001
Heightened Def Con from 0.00918886 to 0.00918887
Heightened Def Con from 0.00918887 to 0.00918887
Heightened Def Con from 0.00918952 to 0.00918953
Heightened Def Con from 0.00918953 to 0.00918953
Heightened Def Con from 0.00918953 to 0.00918953
Heightened Def Con from 0.00918953 to 0.00918954
Heightened Def Con from 0.00918954 to 0.00918955
Heightened Def Con from 0.00918955 to 0.00918955
Heightened Def Con from 0.00918955 to 0.00918955
Heightened Def Con from 0.00918955 to 0.00918956
Heightened Def Con from 0.00918956 to 0.00918956
Heightened Def Con from 0.00918956 to 0.00918957
Heightened Def Con from 0.00918987 to 0.00918987
Heightened Def Con from 0.00918987 to 0.00918987
Heightened Def Con from 0.00918987 to 0.00918988
Heightened Def Con from 0.00918988 to 0.00918988
Heightened Def Con from 0.00918988 to 0.00918988
Heightened Def Con from 0.00918988 to 0.00918989
Heightened Def Con from 0.00918989 to 0.00918989
Heightened Def Con from 0.00918989 to 0.00918989
Heightened Def Con from 0.00918989 to 0.00918989
Heightened Def Con from 0.0091899 to 0.0091899
Heightened Def Con from 0.00918991 to 0.00918991
Heightened Def Con from 0.00918991 to 0.00918992
Heightened Def Con from 0.00918997 to 0.00918997
Heightened Def Con from 0.00918997 to 0.00918997
Heightened Def Con from 0.00918999 to 0.00918999
Heightened Def Con from 0.00919 to 0.00919
Heightened Def Con from 0.00919 to 0.00919003
Heightened Def Con from 0.0092 to 0.00920001
Heightened Def Con from 0.00920999 to 0.00920999
Heightened Def Con from 0.00920999 to 0.00920999
Heightened Def Con from 0.00920999 to 0.00921
Heightened Def Con from 0.00921 to 0.00921003
Heightened Def Con from 0.00925 to 0.00925003
Heightened Def Con from 0.0092599 to 0.0092599
Heightened Def Con from 0.00929 to 0.00929003
Heightened Def Con from 0.0093 to 0.00930001
Heightened Def Con from 0.00931 to 0.00931003
Heightened Def Con from 0.00932 to 0.00932001
Heightened Def Con from 0.00933 to 0.00933003
Heightened Def Con from 0.00933984 to 0.00933984
Heightened Def Con from 0.00934 to 0.00934001
Heightened Def Con from 0.00934843 to 0.00934843
Heightened Def Con from 0.00934843 to 0.00934844
Heightened Def Con from 0.00934844 to 0.00934844
Heightened Def Con from 0.00934997 to 0.00934997
Heightened Def Con from 0.00934997 to 0.00934998
Heightened Def Con from 0.00935 to 0.00935003
Heightened Def Con from 0.00935986 to 0.00935987
Heightened Def Con from 0.00936 to 0.00936001
Heightened Def Con from 0.00937 to 0.00937003
Heightened Def Con from 0.00938 to 0.00938001
Heightened Def Con from 0.00938995 to 0.00938996
Heightened Def Con from 0.00938999 to 0.00938999
Heightened Def Con from 0.00938999 to 0.00939
Heightened Def Con from 0.00939 to 0.00939003
Heightened Def Con from 0.0094 to 0.00940001
Heightened Def Con from 0.00941 to 0.00941003
Heightened Def Con from 0.00942 to 0.00942001
Heightened Def Con from 0.0094297 to 0.00942971
Heightened Def Con from 0.00942971 to 0.00942971
Heightened Def Con from 0.00943 to 0.00943003
Heightened Def Con from 0.00944995 to 0.00944995
Heightened Def Con from 0.00944995 to 0.00944995
Heightened Def Con from 0.00944995 to 0.00944996
Heightened Def Con from 0.00945 to 0.00945
Heightened Def Con from 0.00945 to 0.00945003
Heightened Def Con from 0.00945918 to 0.00945918
Heightened Def Con from 0.00947 to 0.00947002
Heightened Def Con from 0.00948 to 0.00948001
Heightened Def Con from 0.00949 to 0.00949003
Heightened Def Con from 0.00951 to 0.00951003
Heightened Def Con from 0.00952 to 0.00952001
Heightened Def Con from 0.00955 to 0.00955
Heightened Def Con from 0.00955 to 0.00955003
Heightened Def Con from 0.00955996 to 0.00955997
[...]
Heightened Def Con from 0.0406798 to 0.0406798
Heightened Def Con from 0.04068 to 0.04068
Heightened Def Con from 0.04068 to 0.04068
Heightened Def Con from 0.04071 to 0.04071
Heightened Def Con from 0.04071 to 0.04071
Heightened Def Con from 0.04071 to 0.04071
Heightened Def Con from 0.04071 to 0.04071
Heightened Def Con from 0.04071 to 0.04071
Heightened Def Con from 0.04072 to 0.04072
Heightened Def Con from 0.04073 to 0.04073
Heightened Def Con from 0.0407397 to 0.0407397
Heightened Def Con from 0.04077 to 0.04077
Heightened Def Con from 0.0407798 to 0.0407798
Heightened Def Con from 0.04082 to 0.04082
Heightened Def Con from 0.04084 to 0.04084
Heightened Def Con from 0.04085 to 0.04085
Heightened Def Con from 0.0408593 to 0.0408593
Heightened Def Con from 0.04086 to 0.04086
Heightened Def Con from 0.0408681 to 0.0408681
Heightened Def Con from 0.0408681 to 0.0408681
Heightened Def Con from 0.0408681 to 0.0408681
Heightened Def Con from 0.0408681 to 0.0408681
Heightened Def Con from 0.0408695 to 0.0408695
Heightened Def Con from 0.0408695 to 0.0408695
Heightened Def Con from 0.0408695 to 0.0408695
Heightened Def Con from 0.0408695 to 0.0408695
Heightened Def Con from 0.0408698 to 0.0408698
Heightened Def Con from 0.04087 to 0.04087
Heightened Def Con from 0.04087 to 0.04087
Heightened Def Con from 0.04087 to 0.04087
Heightened Def Con from 0.04087 to 0.04087
Heightened Def Con from 0.04087 to 0.04087
Heightened Def Con from 0.04087 to 0.04087
Heightened Def Con from 0.04087 to 0.04087
Heightened Def Con from 0.04087 to 0.04087
Heightened Def Con from 0.04087 to 0.04087
Heightened Def Con from 0.04087 to 0.04087
Heightened Def Con from 0.04087 to 0.04087
Heightened Def Con from 0.04088 to 0.04088
Heightened Def Con from 0.04089 to 0.04089
Heightened Def Con from 0.04091 to 0.04091
Heightened Def Con from 0.04091 to 0.04091
Heightened Def Con from 0.04091 to 0.04091
Heightened Def Con from 0.04091 to 0.04091
Heightened Def Con from 0.04091 to 0.04091
Heightened Def Con from 0.04091 to 0.04091
Heightened Def Con from 0.04091 to 0.04091
Heightened Def Con from 0.04091 to 0.04091
Heightened Def Con from 0.04092 to 0.04092
Heightened Def Con from 0.04093 to 0.04093
Heightened Def Con from 0.0409393 to 0.0409393
Heightened Def Con from 0.0409397 to 0.0409397
Heightened Def Con from 0.04094 to 0.04094
Heightened Def Con from 0.04095 to 0.04095
Heightened Def Con from 0.04095 to 0.04095
Heightened Def Con from 0.04095 to 0.04095
Heightened Def Con from 0.04096 to 0.04096
Heightened Def Con from 0.04112 to 0.04112
Heightened Def Con from 0.04113 to 0.04113
Heightened Def Con from 0.04114 to 0.04114
Heightened Def Con from 0.04114 to 0.04114
Heightened Def Con from 0.04114 to 0.04114
Heightened Def Con from 0.04115 to 0.04115
Heightened Def Con from 0.04115 to 0.04115
Heightened Def Con from 0.04115 to 0.04115
Heightened Def Con from 0.04115 to 0.04115
Heightened Def Con from 0.0411597 to 0.0411597
Heightened Def Con from 0.04116 to 0.04116
Heightened Def Con from 0.04116 to 0.04116
Heightened Def Con from 0.04116 to 0.04116
Heightened Def Con from 0.041168 to 0.041168
Heightened Def Con from 0.041168 to 0.041168
Heightened Def Con from 0.041168 to 0.041168
Heightened Def Con from 0.041168 to 0.041168
Heightened Def Con from 0.041168 to 0.041168
Heightened Def Con from 0.041168 to 0.041168
Heightened Def Con from 0.0411692 to 0.0411692
Heightened Def Con from 0.0411692 to 0.0411692
Heightened Def Con from 0.0411692 to 0.0411692
Heightened Def Con from 0.0411692 to 0.0411692
Heightened Def Con from 0.0411692 to 0.0411692
Heightened Def Con from 0.0411692 to 0.0411693
Heightened Def Con from 0.0411693 to 0.0411693
Heightened Def Con from 0.0411697 to 0.0411697
Heightened Def Con from 0.0411697 to 0.0411697
Heightened Def Con from 0.0411699 to 0.0411699
Heightened Def Con from 0.0411699 to 0.0411699
Heightened Def Con from 0.0411699 to 0.0411699
Heightened Def Con from 0.0411699 to 0.0411699
Heightened Def Con from 0.04117 to 0.04117
Heightened Def Con from 0.04117 to 0.04117
Heightened Def Con from 0.04117 to 0.04117
Heightened Def Con from 0.04117 to 0.04117
Heightened Def Con from 0.04117 to 0.04117
Heightened Def Con from 0.04117 to 0.04117
Heightened Def Con from 0.04117 to 0.04117
Heightened Def Con from 0.0411793 to 0.0411793
Heightened Def Con from 0.04118 to 0.04118
Heightened Def Con from 0.0412192 to 0.0412192
Heightened Def Con from 0.04124 to 0.04124
Heightened Def Con from 0.0412492 to 0.0412492
Heightened Def Con from 0.0412492 to 0.0412492
Heightened Def Con from 0.0412492 to 0.0412492
Heightened Def Con from 0.0412492 to 0.0412492
Heightened Def Con from 0.0412492 to 0.0412492
Heightened Def Con from 0.0412492 to 0.0412492
Heightened Def Con from 0.0412499 to 0.0412499
Heightened Def Con from 0.04125 to 0.04125
Heightened Def Con from 0.0412598 to 0.0412598
Heightened Def Con from 0.04129 to 0.04129
Heightened Def Con from 0.0412992 to 0.0412992
Heightened Def Con from 0.0413 to 0.0413
Heightened Def Con from 0.0413195 to 0.0413195
Heightened Def Con from 0.04132 to 0.04132
Heightened Def Con from 0.04133 to 0.04133
Heightened Def Con from 0.04134 to 0.04134
Heightened Def Con from 0.04134 to 0.04134
Heightened Def Con from 0.041349 to 0.041349
Heightened Def Con from 0.041349 to 0.041349
Heightened Def Con from 0.041349 to 0.041349
Heightened Def Con from 0.041349 to 0.041349
Heightened Def Con from 0.0413499 to 0.0413499
Heightened Def Con from 0.0413499 to 0.0413499
Heightened Def Con from 0.0413499 to 0.0413499
Heightened Def Con from 0.0413499 to 0.0413499
Heightened Def Con from 0.0413499 to 0.0413499
Heightened Def Con from 0.0413499 to 0.0413499
Heightened Def Con from 0.0413499 to 0.0413499
Heightened Def Con from 0.0413499 to 0.0413499
Heightened Def Con from 0.04135 to 0.04135
Heightened Def Con from 0.04135 to 0.04135
Heightened Def Con from 0.04135 to 0.04135
Heightened Def Con from 0.04135 to 0.04135
Heightened Def Con from 0.04135 to 0.04135
Heightened Def Con from 0.04136 to 0.04136
Heightened Def Con from 0.0413697 to 0.0413697
Heightened Def Con from 0.0413697 to 0.0413697
Heightened Def Con from 0.0413697 to 0.0413697
Heightened Def Con from 0.0413697 to 0.0413697
Heightened Def Con from 0.0413697 to 0.0413697
Heightened Def Con from 0.0413697 to 0.0413697
Heightened Def Con from 0.0413697 to 0.0413697
Heightened Def Con from 0.04137 to 0.04137
Heightened Def Con from 0.04137 to 0.04137
Heightened Def Con from 0.04137 to 0.04137
Heightened Def Con from 0.04137 to 0.04137
Heightened Def Con from 0.04137 to 0.04137
Heightened Def Con from 0.04137 to 0.04137
Heightened Def Con from 0.04137 to 0.04137
Heightened Def Con from 0.04137 to 0.04137
Heightened Def Con from 0.04137 to 0.04137
Heightened Def Con from 0.04137 to 0.04137
Heightened Def Con from 0.04138 to 0.04138
Heightened Def Con from 0.04139 to 0.04139
Heightened Def Con from 0.0414 to 0.0414
Heightened Def Con from 0.04149 to 0.04149
Heightened Def Con from 0.0415 to 0.0415
Heightened Def Con from 0.04155 to 0.04155
Heightened Def Con from 0.04156 to 0.04156
Heightened Def Con from 0.04157 to 0.04157
Heightened Def Con from 0.04161 to 0.04161
Heightened Def Con from 0.04162 to 0.04162
Heightened Def Con from 0.04164 to 0.04164
Heightened Def Con from 0.04167 to 0.04167
Heightened Def Con from 0.0416794 to 0.0416794
Heightened Def Con from 0.04169 to 0.04169
Heightened Def Con from 0.04169 to 0.04169
Heightened Def Con from 0.0416999 to 0.0416999
Heightened Def Con from 0.0417 to 0.0417
Heightened Def Con from 0.0417 to 0.0417
Heightened Def Con from 0.04171 to 0.04171
Heightened Def Con from 0.0417199 to 0.0417199
Heightened Def Con from 0.0417199 to 0.0417199
Heightened Def Con from 0.04172 to 0.04172
Heightened Def Con from 0.04172 to 0.04172
Heightened Def Con from 0.0417299 to 0.0417299
Heightened Def Con from 0.0417299 to 0.0417299
Heightened Def Con from 0.0417299 to 0.0417299
Heightened Def Con from 0.0417299 to 0.0417299
Heightened Def Con from 0.04173 to 0.04173
Heightened Def Con from 0.04173 to 0.04173
Heightened Def Con from 0.04173 to 0.04173
Heightened Def Con from 0.04173 to 0.04173
Heightened Def Con from 0.04173 to 0.04173
Heightened Def Con from 0.04173 to 0.04173
Heightened Def Con from 0.04173 to 0.04173
Heightened Def Con from 0.04173 to 0.04173
Heightened Def Con from 0.04174 to 0.04174
Heightened Def Con from 0.04179 to 0.04179
Heightened Def Con from 0.0417997 to 0.0417997
Heightened Def Con from 0.0418 to 0.0418
Heightened Def Con from 0.04184 to 0.04184
Heightened Def Con from 0.04185 to 0.04185
Heightened Def Con from 0.04185 to 0.04185
Heightened Def Con from 0.04185 to 0.04185
Heightened Def Con from 0.04185 to 0.04185
Heightened Def Con from 0.04185 to 0.04185
Heightened Def Con from 0.0418599 to 0.0418599
Heightened Def Con from 0.04186 to 0.04186
Heightened Def Con from 0.04193 to 0.04193
Heightened Def Con from 0.04194 to 0.04194
Heightened Def Con from 0.0419491 to 0.0419491
Heightened Def Con from 0.0419498 to 0.0419498
Heightened Def Con from 0.0419498 to 0.0419498
Heightened Def Con from 0.0419498 to 0.0419498
Heightened Def Con from 0.0419498 to 0.0419498
Heightened Def Con from 0.0419498 to 0.0419498
Heightened Def Con from 0.0419498 to 0.0419498
Heightened Def Con from 0.0419498 to 0.0419498
Heightened Def Con from 0.0419499 to 0.0419499
Heightened Def Con from 0.0419499 to 0.0419499
Heightened Def Con from 0.0419499 to 0.0419499
Heightened Def Con from 0.0419499 to 0.0419499
Heightened Def Con from 0.04195 to 0.04195
Heightened Def Con from 0.04195 to 0.04195
Heightened Def Con from 0.04195 to 0.04195
Heightened Def Con from 0.04195 to 0.04195
Heightened Def Con from 0.0419596 to 0.0419596
Heightened Def Con from 0.04196 to 0.04196
Heightened Def Con from 0.042 to 0.042
Heightened Def Con from 0.04201 to 0.04201
Heightened Def Con from 0.0420192 to 0.0420192
Heightened Def Con from 0.04204 to 0.04204
Heightened Def Con from 0.04204 to 0.04204
Heightened Def Con from 0.04204 to 0.04204
Heightened Def Con from 0.04206 to 0.04206
Heightened Def Con from 0.04208 to 0.04208
Heightened Def Con from 0.04211 to 0.04211
Heightened Def Con from 0.04212 to 0.04212
Heightened Def Con from 0.042128 to 0.042128
Heightened Def Con from 0.042128 to 0.042128
Heightened Def Con from 0.042128 to 0.042128
Heightened Def Con from 0.0421291 to 0.0421291
Heightened Def Con from 0.0421291 to 0.0421291
Heightened Def Con from 0.0421291 to 0.0421291
Heightened Def Con from 0.04213 to 0.04213
Heightened Def Con from 0.04213 to 0.04213
Heightened Def Con from 0.04213 to 0.04213
Heightened Def Con from 0.04213 to 0.04213
Heightened Def Con from 0.04214 to 0.04214
Heightened Def Con from 0.04216 to 0.04216
Heightened Def Con from 0.0421698 to 0.0421698
Heightened Def Con from 0.04217 to 0.04217
Heightened Def Con from 0.04217 to 0.04217
Heightened Def Con from 0.04217 to 0.04217
Heightened Def Con from 0.0421899 to 0.0421899
Heightened Def Con from 0.0421899 to 0.0421899
Heightened Def Con from 0.0421899 to 0.0421899
Heightened Def Con from 0.0421899 to 0.0421899
Heightened Def Con from 0.04219 to 0.04219
Heightened Def Con from 0.04219 to 0.04219
Heightened Def Con from 0.04219 to 0.04219
Heightened Def Con from 0.04219 to 0.04219
Heightened Def Con from 0.0422 to 0.0422
Heightened Def Con from 0.04222 to 0.04222
Heightened Def Con from 0.04226 to 0.04226
Heightened Def Con from 0.0423099 to 0.0423099
Heightened Def Con from 0.0423099 to 0.0423099
Heightened Def Con from 0.0423099 to 0.0423099
Heightened Def Con from 0.0423099 to 0.0423099
Heightened Def Con from 0.04231 to 0.04231
Heightened Def Con from 0.04231 to 0.04231
Heightened Def Con from 0.04231 to 0.04231
Heightened Def Con from 0.04231 to 0.04231
Heightened Def Con from 0.0423199 to 0.0423199
Heightened Def Con from 0.04232 to 0.04232
Heightened Def Con from 0.04239 to 0.04239
Heightened Def Con from 0.0423992 to 0.0423992
Heightened Def Con from 0.0424 to 0.0424
Heightened Def Con from 0.04241 to 0.04241
Heightened Def Con from 0.0424192 to 0.0424192
Heightened Def Con from 0.04242 to 0.04242
Heightened Def Con from 0.04243 to 0.04243
Heightened Def Con from 0.04243 to 0.04243
Heightened Def Con from 0.04243 to 0.04243
Heightened Def Con from 0.04243 to 0.04243
Heightened Def Con from 0.04243 to 0.04243
Heightened Def Con from 0.04243 to 0.04243
Heightened Def Con from 0.04243 to 0.04243
Heightened Def Con from 0.04244 to 0.04244
Heightened Def Con from 0.04244 to 0.04244
Heightened Def Con from 0.04245 to 0.04245
Heightened Def Con from 0.04245 to 0.04245
Heightened Def Con from 0.04254 to 0.04254
Heightened Def Con from 0.04255 to 0.04255
Heightened Def Con from 0.04257 to 0.04257
Heightened Def Con from 0.0425797 to 0.0425797
Heightened Def Con from 0.04258 to 0.04258
Heightened Def Con from 0.04258 to 0.04258
Heightened Def Con from 0.0426199 to 0.0426199
Heightened Def Con from 0.0426199 to 0.0426199
Heightened Def Con from 0.0426282 to 0.0426282
Heightened Def Con from 0.0426282 to 0.0426282
Heightened Def Con from 0.0426282 to 0.0426282
Heightened Def Con from 0.0426282 to 0.0426282
Heightened Def Con from 0.0426282 to 0.0426282
Heightened Def Con from 0.0426292 to 0.0426292
Heightened Def Con from 0.0426292 to 0.0426292
Heightened Def Con from 0.0426296 to 0.0426296
Heightened Def Con from 0.0426296 to 0.0426296
Heightened Def Con from 0.0426296 to 0.0426296
Heightened Def Con from 0.0426296 to 0.0426296
Heightened Def Con from 0.0426296 to 0.0426297
Heightened Def Con from 0.0426297 to 0.0426297
Heightened Def Con from 0.0426299 to 0.0426299
Heightened Def Con from 0.0426299 to 0.0426299
Heightened Def Con from 0.0426299 to 0.0426299
Heightened Def Con from 0.04263 to 0.04263
Heightened Def Con from 0.04263 to 0.04263
Heightened Def Con from 0.04263 to 0.04263
Heightened Def Con from 0.04263 to 0.04263
Heightened Def Con from 0.04263 to 0.04263
Heightened Def Con from 0.04264 to 0.04264
Heightened Def Con from 0.04268 to 0.04268
Heightened Def Con from 0.04269 to 0.04269
Heightened Def Con from 0.04269 to 0.04269
Heightened Def Con from 0.0427 to 0.0427
Heightened Def Con from 0.0427096 to 0.0427096
Heightened Def Con from 0.0427096 to 0.0427096
Heightened Def Con from 0.0427096 to 0.0427096
Heightened Def Con from 0.0427096 to 0.0427096
Heightened Def Con from 0.0427096 to 0.0427096
Heightened Def Con from 0.0427096 to 0.0427096
Heightened Def Con from 0.0427096 to 0.0427096
Heightened Def Con from 0.0427096 to 0.0427096
Heightened Def Con from 0.0427096 to 0.0427096
Heightened Def Con from 0.0427096 to 0.0427096
Heightened Def Con from 0.0427096 to 0.0427096
Heightened Def Con from 0.0427099 to 0.0427099
Heightened Def Con from 0.0427099 to 0.0427099
Heightened Def Con from 0.0427099 to 0.0427099
Heightened Def Con from 0.0427099 to 0.04271
Heightened Def Con from 0.04271 to 0.04271
Heightened Def Con from 0.04271 to 0.04271
Heightened Def Con from 0.04271 to 0.04271
Heightened Def Con from 0.04271 to 0.04271
Heightened Def Con from 0.0427198 to 0.0427198
Heightened Def Con from 0.04272 to 0.04272
Heightened Def Con from 0.0427294 to 0.0427294
Heightened Def Con from 0.0427294 to 0.0427294
Heightened Def Con from 0.0427294 to 0.0427294
Heightened Def Con from 0.0427294 to 0.0427294
Heightened Def Con from 0.0427294 to 0.0427294
Heightened Def Con from 0.0427294 to 0.0427294
Heightened Def Con from 0.0427299 to 0.0427299
Heightened Def Con from 0.0427299 to 0.0427299
Heightened Def Con from 0.04273 to 0.04273
Heightened Def Con from 0.04273 to 0.04273
Heightened Def Con from 0.04273 to 0.04273
Heightened Def Con from 0.04273 to 0.04273
Heightened Def Con from 0.04273 to 0.04273
Heightened Def Con from 0.04273 to 0.04273
Heightened Def Con from 0.04273 to 0.04273
Heightened Def Con from 0.04274 to 0.04274
Heightened Def Con from 0.04274 to 0.04274
Heightened Def Con from 0.04276 to 0.04276
Heightened Def Con from 0.0427695 to 0.0427695
Heightened Def Con from 0.0427695 to 0.0427695
Heightened Def Con from 0.0427699 to 0.0427699
Heightened Def Con from 0.0427699 to 0.0427699
Heightened Def Con from 0.0427699 to 0.0427699
Heightened Def Con from 0.0427699 to 0.0427699
Heightened Def Con from 0.0427699 to 0.04277
Heightened Def Con from 0.04277 to 0.04277
Heightened Def Con from 0.04277 to 0.04277
Heightened Def Con from 0.04277 to 0.04277
Heightened Def Con from 0.04277 to 0.04277
Heightened Def Con from 0.0427792 to 0.0427792
Heightened Def Con from 0.04278 to 0.04278
Heightened Def Con from 0.04278 to 0.04278
Heightened Def Con from 0.0427898 to 0.0427898
Heightened Def Con from 0.0427898 to 0.0427898
Heightened Def Con from 0.0427898 to 0.0427898
Heightened Def Con from 0.0427898 to 0.0427898
Heightened Def Con from 0.0427899 to 0.0427899
Heightened Def Con from 0.0427899 to 0.0427899
Heightened Def Con from 0.0428299 to 0.0428299
Heightened Def Con from 0.04283 to 0.04283
Heightened Def Con from 0.04283 to 0.04283
Heightened Def Con from 0.04283 to 0.04283
Heightened Def Con from 0.04283 to 0.04283
Heightened Def Con from 0.04283 to 0.04283
Heightened Def Con from 0.04283 to 0.04283
Heightened Def Con from 0.04283 to 0.04283
Heightened Def Con from 0.04283 to 0.04283
Heightened Def Con from 0.04284 to 0.04284
Heightened Def Con from 0.0428698 to 0.0428698
Heightened Def Con from 0.0428698 to 0.0428698
Heightened Def Con from 0.0428699 to 0.0428699
Heightened Def Con from 0.04287 to 0.04287
Heightened Def Con from 0.04287 to 0.04287
Heightened Def Con from 0.04287 to 0.04287
Heightened Def Con from 0.04287 to 0.04287
Heightened Def Con from 0.04287 to 0.04287
Heightened Def Con from 0.04288 to 0.04288
Heightened Def Con from 0.04288 to 0.04288
Heightened Def Con from 0.04288 to 0.04288
Heightened Def Con from 0.0428893 to 0.0428893
Heightened Def Con from 0.0428893 to 0.0428893
Heightened Def Con from 0.0428893 to 0.0428893
Heightened Def Con from 0.0428893 to 0.0428893
Heightened Def Con from 0.0428898 to 0.0428898
Heightened Def Con from 0.0428898 to 0.0428898
Heightened Def Con from 0.0428898 to 0.0428898
Heightened Def Con from 0.0428898 to 0.0428898
Heightened Def Con from 0.0428898 to 0.0428898
Heightened Def Con from 0.0428898 to 0.0428898
Heightened Def Con from 0.0428898 to 0.0428898
Heightened Def Con from 0.0428898 to 0.0428898
Heightened Def Con from 0.0428899 to 0.0428899
Heightened Def Con from 0.0428899 to 0.0428899
Heightened Def Con from 0.0428899 to 0.0428899
Heightened Def Con from 0.0428899 to 0.0428899
Heightened Def Con from 0.0428899 to 0.0428899
Heightened Def Con from 0.0428899 to 0.04289
Heightened Def Con from 0.04289 to 0.04289
Heightened Def Con from 0.04289 to 0.04289
Heightened Def Con from 0.04289 to 0.04289
Heightened Def Con from 0.04289 to 0.04289
Heightened Def Con from 0.04289 to 0.04289
Heightened Def Con from 0.04289 to 0.04289
Heightened Def Con from 0.04289 to 0.04289
Heightened Def Con from 0.04289 to 0.04289
Heightened Def Con from 0.04289 to 0.04289
Heightened Def Con from 0.04289 to 0.04289
Heightened Def Con from 0.0429 to 0.0429
Heightened Def Con from 0.04295 to 0.04295
Heightened Def Con from 0.0429597 to 0.0429597
Heightened Def Con from 0.0429599 to 0.0429599
Heightened Def Con from 0.04296 to 0.04296
Heightened Def Con from 0.04296 to 0.04296
Heightened Def Con from 0.04299 to 0.04299
Heightened Def Con from 0.043 to 0.043
Heightened Def Con from 0.043 to 0.043
Heightened Def Con from 0.04303 to 0.04303
Heightened Def Con from 0.0430392 to 0.0430392
Heightened Def Con from 0.0430392 to 0.0430392
Heightened Def Con from 0.04311 to 0.04311
Heightened Def Con from 0.0431192 to 0.0431192

Date: Wed Feb 26 00:05:51 2025
Total elapsed time: 22.907 seconds.

tnom = 27
temp = 27
method = modified trap
totiter = 3445777
traniter = 3445755
tranpoints = 977955
accept = 712627
rejected = 274635
matrix size = 53
fillins = 22
solver = Normal
Avg thread counts: 1.0/1.0/1.0/1.0
Matrix Compiler1: 3.85 KB object code size  1.3/0.8/[0.4]
Matrix Compiler2: 4.24 KB object code size  0.6/1.2/[0.5]

