Circuit: * D:\Work and Coper Onion\Senior Projects\Switch-Mode-Power-Supply\LTSpice Simulations\Logical Level Shift\Logical_Level_Shift.asc

Direct Newton iteration failed to find .op point.  (Use ".option noopiter" to skip.)
Starting Gmin stepping
Gmin = 10
Gmin = 1.07374
Gmin = 0.115292
Gmin = 0.0123794
Gmin = 0.00132923
Gmin = 0.000142725
Gmin = 1.5325e-05
Gmin = 1.6455e-06
Gmin = 1.76685e-07
Gmin = 1.89714e-08
Gmin = 2.03704e-09
Gmin = 2.18725e-10
Gmin = 2.34854e-11
Gmin = 2.52173e-12
Gmin = 2.70769e-13
Gmin = 0
Gmin stepping succeeded in finding the operating point.


Date: Tue Feb 25 09:43:22 2025
Total elapsed time: 0.117 seconds.

tnom = 27
temp = 27
method = modified trap
totiter = 7162
traniter = 6733
tranpoints = 2561
accept = 2155
rejected = 406
matrix size = 33
fillins = 3
solver = Normal
Avg thread counts: 1.1/1.4/1.4/1.1
Matrix Compiler1: 2.15 KB object code size  0.6/0.5/[0.3]
Matrix Compiler2: 2.88 KB object code size  0.5/0.9/[0.4]

